81
 energy: -151.205832638580 gnorm: 0.000310743462 xtb: 6.5.1 (579679a)
Au          11.48294273753473        2.21462681313362        7.03044351084670
S           10.22446629995097        4.29762067174584        8.78528343136579
S            9.12989435582993        1.75342313834085        8.94589244463173
F           12.12152846029143        2.81766478196264        9.86424329691483
F           12.39866245319905        4.93354263991145       10.09158697922412
F           10.96131545209373        3.91259537249955       11.31926302694044
F            7.08127600184635        2.83104939917504        7.70940155977485
F            6.94451680386785        2.91197368532699        9.85890223107058
F            6.61993366752890        1.05296160346120        8.82932317859957
O           10.95000577979946        5.06082997570010        7.80290476429438
O            9.08400996256070        4.87454988208342        9.43200827712924
O            9.48252314289060        1.77633136590618       10.33808046930783
O            9.28617705001824        0.52892693992693        8.20260940035198
N           14.28823313713583        1.34998512831018        6.51250463582157
N           13.13609668530664        1.27623199772095        4.71979978124306
N            9.89126077215251        2.88680729853878        8.05343654673352
C           13.06258739178875        1.57581076207568        6.02286359296476
C           15.13502240095989        0.90976865202646        5.52553589021261
H           16.16606595220985        0.67286335195523        5.72061623660218
C           14.40172123088927        0.86159040774184        4.38427995169549
H           14.66225019150599        0.57570909916693        3.38049139559193
C           14.62159388497996        1.57601012037522        7.88606807051100
C           15.13241983688948        2.82295846266767        8.25070737447118
C           15.41217317941409        3.04015674404805        9.59764050401191
H           15.80409744191557        3.99805002845790        9.91892472846177
C           15.17940372433245        2.04722425252664       10.53612847733412
H           15.39572406471621        2.23440024652388       11.58160892184708
C           14.65774904872686        0.82266009452802       10.15052594783425
H           14.46653262313145        0.06351563873985       10.89984006694063
C           14.36428184985646        0.56494936466923        8.81348019882659
C           15.35154037301823        3.91888634399814        7.22929484761987
H           15.08447783671235        3.53770721850017        6.23536669498180
C           14.44650050699600        5.11939100226482        7.53091983084490
H           13.40225351528031        4.80843609004182        7.53456129795402
H           14.57885822069463        5.88495339009587        6.76627994143633
H           14.68026295821630        5.55191839183456        8.50339621170156
C           16.82708335792048        4.33556780289068        7.18954674505880
H           17.13766612351285        4.76508569839112        8.14198111519834
H           16.98030470192811        5.07946247633829        6.40756450180748
H           17.45503899939659        3.46971451590684        6.97662017582449
C           13.76702034973323       -0.76187753877851        8.39565339968914
H           13.62643151897333       -0.76086184474637        7.30718696327269
C           12.39444549451865       -0.96113232872103        9.04906687192542
H           12.47899635505888       -1.00385677115415       10.13461828987470
H           11.94558953780730       -1.88922068874616        8.69537231465030
H           11.73291349815896       -0.13560548936004        8.78739422993214
C           14.71520378148638       -1.91587593274055        8.74461568916563
H           15.68769439768004       -1.75644646311326        8.27756562006306
H           14.30188975236205       -2.85642209762942        8.38013620070773
H           14.85524706573771       -1.99375378197895        9.82280476623192
C           12.01480085418273        1.39651559578784        3.84009658479867
C           11.18014460181540        0.29130326498410        3.66702530050974
C           10.07210652315233        0.44014013504681        2.83623609128808
H            9.39904036099294       -0.39483440582268        2.68034140498727
C            9.81238853134107        1.65237157251513        2.21641989265690
H            8.94367891663766        1.75339401053323        1.57596574711799
C           10.64485537919479        2.74138919441765        2.42210893509600
H           10.41477413456721        3.68709640853835        1.94543717965956
C           11.76417093281810        2.63389273556989        3.24421085390291
C           11.44079290867729       -1.01504922101209        4.38637665121199
H           12.37802269043367       -0.92809394557879        4.95047002502105
C           11.60004750494869       -2.16853709793074        3.38863806480123
H           10.67671957315208       -2.33789940978905        2.83463711715425
H           11.85652360937179       -3.08415535399848        3.92165426569229
H           12.39612418424991       -1.94241402331124        2.67847892213301
C           10.31396775500204       -1.30189725426764        5.38663803927881
H           10.21818932077877       -0.47541963144069        6.09079122322264
H           10.53718431050133       -2.21018686740432        5.94624038079036
H            9.36078550282572       -1.43159695813563        4.87428664244123
C           12.65277892205667        3.83198298968448        3.50457309210469
H           13.49976705946426        3.51662927698072        4.12693387410633
C           13.21868720411459        4.39088121739395        2.19352914436936
H           13.75371437008974        3.60935671084179        1.65312323265461
H           13.91156109147138        5.20440771871071        2.40878640676828
H           12.42322007427186        4.77437496863397        1.55458770018917
C           11.87874565106743        4.91021791325309        4.27321161703060
H           11.03120706560901        5.27246629367742        3.69157917547585
H           12.53565253596716        5.75058801469277        4.49703835884029
H           11.50439579761323        4.50475544430344        5.21387118046572
C           11.49805585589327        3.96430787674653       10.12554450624802
C            7.31141284909686        2.17775491401220        8.83422779052270
