113
 energy: -157.275191427335 gnorm: 0.000679703987 xtb: 6.5.1 (579679a)
Au           7.78950531471612       15.84883947632992       10.50550035838362
N            6.79524431001808       14.75487056271280        9.17624868555412
N            7.36350723104250       14.50961014174773        7.99151666169576
C            6.61541167035027       13.58596256838067        7.38011927963025
C            5.54457198413778       13.20654360236109        8.20945476158741
H            4.76143564897395       12.49560235813976        8.00504279202510
C            5.69405387239079       13.98228988813808        9.34133574161923
C            6.96581256361756       13.11866803904578        6.04812106797134
C            8.08393335555096       13.65455092114914        5.39451229208563
H            8.67485974873586       14.41097625609859        5.90016783997237
C            8.43531465253015       13.23640209478013        4.12713171913596
H            9.29864360494479       13.65198703037038        3.62086457419975
C            7.67330744077069       12.26435916035231        3.47332649368117
C            6.56192499010040       11.71667686014788        4.10924310897887
H            5.95818990491006       10.95827242914123        3.62604698808646
O            8.08998070881225       11.91366913245210        2.22200573835142
C            6.21766051560853       12.14520341258206        5.38369978587423
H            5.34823195847220       11.70868867036572        5.86372957869898
C            7.34727073032975       10.97621309020835        1.45910394930235
H            6.30735357802657       11.31658879867012        1.33617271717546
H            7.33589065291993        9.99453273991878        1.95786310630944
C            8.03014861220922       10.86830547373167        0.09652762913497
H            8.05403146394150       11.85982967295695       -0.36497652911259
H            9.06433504856937       10.54373467682166        0.24384822061471
C            7.29006025421628        9.88197709541285       -0.80878110634887
H            6.25335204361513       10.21245221000619       -0.93815833814670
H            7.26533978030340        8.89583736755579       -0.33170042224997
C            7.96127283768694        9.76639866011366       -2.18082393490183
H            8.99689263197262        9.43336196900892       -2.05369298283180
H            7.98599588393659       10.75146691022323       -2.65899052460008
C            7.21284153550900        8.77910401422883       -3.08154220496930
H            7.18765529682504        7.79478820633958       -2.60127484178668
H            6.17691752454734        9.11304413428560       -3.20611798004524
C            7.87838848935002        8.65896301303836       -4.45586892419729
H            7.90510924921316        9.64336660122953       -4.93572507738788
H            8.91360628265720        8.32279803616589       -4.33196662599471
C            7.12527232120394        7.67306774909927       -5.35458339859514
H            6.09022968361659        8.00994392731921       -5.47712455322293
H            7.09900568412231        6.68923236648821       -4.87378219896900
C            7.78456617041190        7.54965272951463       -6.72725391970773
H            7.23118017505622        6.84440522466348       -7.34825032509399
H            8.81093672815767        7.19324165514223       -6.62821599695289
H            7.80170251140786        8.51674407711490       -7.23191347060304
C            4.92921310411254       14.05691880011957       10.57860531763109
C            4.73347342814946       15.28377891094947       11.22428899591398
H            5.06144279541037       16.20018059858205       10.74644099237704
C            4.09194639692033       15.35221439105097       12.44684195355019
H            3.94749911247698       16.30174560636893       12.94843509080461
C            3.61998541595264       14.18741893652676       13.05420483252275
O            3.04017232809862       14.34600635528418       14.27845229772803
C            3.76311572681663       12.96321054824712       12.40404032669960
H            3.38688959568902       12.04944847230696       12.84697868269137
C            4.41024858453037       12.90757529620858       11.17812043771646
H            4.53747946429382       11.94779966204443       10.68893405546977
C            2.54979216024709       13.22218815540490       14.99741400769965
H            3.35916777001852       12.49639976489754       15.17126240764117
H            1.74841528060416       12.72478665313666       14.43111567872000
C            2.00493289300070       13.73868246860159       16.32806302878337
H            1.57191512387455       12.89938275511538       16.88040568143745
H            1.20986658480066       14.46219908840119       16.12576707868323
C            3.10952903660341       14.40579448125590       17.15262965145401
H            3.54522041562777       15.21904672495756       16.56390360565014
H            3.90407254852590       13.67949278011642       17.35694969469540
C            2.57500116464345       14.96708228725698       18.47222562864197
H            2.15499496942369       14.15471286517834       19.07516636049137
H            1.76827002826041       15.67861340013642       18.26598671347554
C            3.68492817996809       15.66911170264897       19.26041382208537
H            4.10630115449429       16.47735807148533       18.65166971788029
H            4.49164792065480       14.95761969356241       19.46820851194840
C            3.15896201674460       16.24588053538167       20.57789029464719
H            2.34944700523164       16.95361556090041       20.36866854438869
H            2.74253826025459       15.43774625414275       21.18897521559133
C            4.26899602787642       16.95648251934027       21.35852556217596
H            4.68178229041222       17.76704059410813       20.74811900581310
H            5.08029116480794       16.24960706021085       21.56345058242610
C            3.74776817904567       17.52746591569780       22.67624362614907
H            4.55313239204353       18.02846209546868       23.21427203782702
H            3.35164632552033       16.73101854588169       23.30785301803137
H            2.95174471536289       18.25027819570452       22.49160369303767
P            8.83509910360649       17.05868376109173       12.15067612055114
C            9.16865680483353       18.80977814331967       11.78585673400743
C           10.22009059197629       19.52694079729474       12.36115091960404
H           10.89202547764556       19.03689436275734       13.05692300805530
C           10.41520946718067       20.86218332426788       12.04241601133818
H           11.23526519684741       21.40829105496878       12.49495677134729
C            9.56622188575460       21.49784387918961       11.14647543020258
H            9.72358825719271       22.54096387976476       10.89678382114566
C            8.51952961889143       20.79372756178878       10.56663196231214
H            7.85678099210475       21.28443159082775        9.86311749658415
C            8.32432571323284       19.45850737665173       10.88213945017491
H            7.51100264345580       18.90657339531562       10.42306407890055
C           10.43269268560149       16.41985147388864       12.74402101035336
C           10.83662157998203       16.49524065066783       14.07886024815608
H           10.18300633687977       16.94753256303249       14.81648871936942
C           12.06620486394312       15.98696837183022       14.46902694183551
H           12.36811939348484       16.05063396852512       15.50841488416854
C           12.90656822582434       15.39746970361189       13.53424591036675
H           13.86617431806219       14.99849180345455       13.84259716125643
C           12.51340256248624       15.31436500251079       12.20516513524048
H           13.16401260689640       14.84990342416927       11.47297897132544
C           11.28362325022905       15.81916840635176       11.81360327758689
H           10.97380215116753       15.74542770534600       10.77656784497817
C            7.80071618085500       17.10521728931912       13.64617399207334
C            7.04132818166486       15.96944243873814       13.93957943668433
H            7.09237086211103       15.11018533687385       13.28012026261771
C            6.21727656608621       15.93637083574441       15.05266301864984
H            5.62698406537366       15.05184044175370       15.26108959475785
C            6.13739603522587       17.04211264970719       15.88812775877046
H            5.48657295324003       17.02134171002616       16.75518249938538
C            6.88484922658725       18.17732708177017       15.60673560784994
H            6.82206627197000       19.04428198618726       16.25474545819295
C            7.71111375493552       18.21178695150609       14.49317874242306
H            8.28442796825284       19.10633232710910       14.27687583334746
