43
 energy: -84.719074126786 gnorm: 0.000309022865 xtb: 6.5.1 (579679a)
Au          13.75064604963716        5.98773284642983       14.88140214151038
P           13.12673667921412        3.83803643320338       15.48104393089478
F           14.73182121048699        5.88356209024695       12.08284118320991
F           13.98881319418779        8.98162697402025       14.75978092418634
F           16.39881571759606        5.84898688845374       13.42915153395608
F           15.74618590369241        9.01607816656431       12.66423337047164
C           11.05166787116212        2.73703918385436       17.07114451665825
H           10.87331074463131        2.03477530646122       16.26453717041259
F           16.57340799989840        6.87061225007516       11.53333220650994
C           10.27487737530228        2.67906235957980       18.21832947469988
H            9.49645486614184        1.92905435534289       18.30257366859263
C           15.73553048487050        2.97321186951274       15.19141700898982
H           15.80754670120268        3.78949632020834       14.48201813805409
C           10.72229589096473        1.72991699598540       12.16143814744280
H           10.14894398629818        1.25552061607521       11.37324598862678
C           14.52902787295455        2.74312565404268       15.85705917928429
C           12.26091127476120        4.60117199956487       17.99321409862481
H           13.03298238441430        5.35788099240508       17.90169471456285
C           12.53997624608810        1.67432462427575       13.73669028545756
H           13.38363391488453        1.15124546721036       14.17228949094779
C           12.05686421477908        3.69863751732009       16.94675820855046
C           10.49154279021765        3.57676927651005       19.25480222348165
H            9.88210008231736        3.52960185773343       20.15002488272839
C           11.48661634102142        4.53853924622323       19.14063029237358
H           11.65635147502235        5.24432973429721       19.94575463618859
C           11.80350858693110        1.07026701799048       12.72839422869585
H           12.07738196199422        0.07928833121138       12.38418766363633
C           10.37962305824398        3.00204447060916       12.60156438934430
H            9.53902808036976        3.52338460544512       12.15792340616267
C           12.20127644621900        2.94978104844541       14.19018195815849
C           11.11714910006229        3.60996238706808       13.60396150300659
H           10.85417241790595        4.60752666928381       13.94035492959700
C           14.45323869251327        1.69401545502118       16.77654519253753
H           13.52650852746507        1.50547499635160       17.30721700900205
C           15.55880100367761        0.89333363443536       17.01819610834984
H           15.48851370703072        0.08288218766401       17.73506107206293
C           15.24443804316020        7.88940087942990       13.20412030852907
C           16.83785431557945        2.16879789209078       15.43237870566781
H           17.76783985066875        2.35830925133076       14.90881052179963
C           14.39068824681032        7.82456665835973       14.22080037985749
C           16.75149002808031        1.12788238164950       16.34687628673948
H           17.61459801524196        0.50108015055324       16.54009682409966
C           15.75112864630184        6.64356295746930       12.54332209634463
