67
 energy: -83.928630867686 gnorm: 0.000754090520 xtb: 6.5.1 (579679a)
C            5.27815833623192       17.92666442692183        9.10602696116736
C            6.49843614687043       17.95809227310914        9.01418204868913
C            9.09183460521345       17.48190532558957       10.59798562011828
H           10.19185283784089       17.43314409237665       10.51779955363469
C            8.79010978985953       18.51913962359097       11.70343072744358
H            7.71446842028458       18.62520607652084       11.85889453921613
H            9.19640178190539       19.49733214908262       11.44106344689136
H            9.24199801836115       18.20762863809564       12.64833687387612
C            8.63712005994881       16.09046494408296       11.09312250026406
H            9.09627317318969       15.86219573894873       12.05821526829689
H            8.93029874316907       15.31093400603659       10.38790094471524
H            7.55238130154093       16.05324386594449       11.21380427323763
C            8.85142536263429       16.71625863945159        7.48856753022408
H            8.75476460366460       17.23631462757064        6.51755067691981
C            7.94068883583817       15.47221668987067        7.38075245740532
H            8.00832695963818       14.85252431363378        8.27679206772863
H            8.23395372230085       14.86195813245751        6.52312312398328
H            6.89865993041870       15.76860326900887        7.24932720000009
C           10.32168990119769       16.25016790625201        7.56814697309314
H           10.49402167470253       15.64581681703053        8.46047192514798
H           11.00227992005787       17.10261847208111        7.59758835123527
H           10.57431157990909       15.64463760836537        6.69438017721002
C            8.88369923567390       19.76911380241377        8.42058698432456
H            8.55465615892424       20.44398156107462        9.23195019474116
C           10.40897609144652       19.97303681006068        8.29715294867032
H           10.80937266672037       19.42582244673561        7.44199024775410
H           10.92335896185004       19.62868819840705        9.19606685597232
H           10.63942465266435       21.03213110872296        8.15821256877726
C            8.20198387664919       20.29841823911957        7.13865226156609
H            8.46075017001714       21.34748771851060        6.97667329123312
H            7.11596110027397       20.22314713864733        7.22053033397312
H            8.51879010556790       19.73097510178420        6.26137480442638
C            1.29800896387818       17.76325134024590        9.38526464138870
C           -0.78677105957302       17.89543505089754       10.19924367682888
C           -1.93669535663742       18.07577952260898       10.96049171004820
H           -1.90039477031005       18.42897582825176       11.98256539875510
C           -3.15062907691635       17.78461597923267       10.35998998012531
H           -4.06663111001955       17.91412903699754       10.92489853356549
C           -3.22227834975982       17.32744136673207        9.04177343335283
H           -4.19247323552595       17.11109618105056        8.60947866182927
C           -2.08262537553102       17.14471348198937        8.27574752634569
H           -2.15730962283850       16.78988484435726        7.25632794760144
C           -0.85902888326324       17.43450805770492        8.87003755408566
C            1.17387193509905       18.54310032110349       11.69535790949784
H            2.25141377396529       18.54414173633173       11.48097659265848
C            0.73492923482130       19.97011307607811       12.01421759475095
H            0.92594135434631       20.61459576249017       11.15669868830665
H            1.30220373815638       20.34127670951640       12.86712754910137
H           -0.32604976765064       20.01497503673937       12.25603507854877
C            0.90060086863739       17.56386143583501       12.83436067657122
H            1.47520893385354       17.85942862812357       13.71160057699756
H            1.20241508032831       16.55986731560952       12.53746851421333
H           -0.15559395066511       17.54747902585532       13.09972693741871
C            0.92450827433149       16.95397758932579        7.11232386856291
H            2.01706510628736       17.05125048704124        7.17433933621898
C            0.57561951078119       15.49018715675670        6.85441292363610
H            1.05174114725139       15.16183478696712        5.93108884377421
H           -0.50015477223402       15.34850578343633        6.76047094897569
H            0.93918889469902       14.87436850811374        7.67649005194392
C            0.40860147009960       17.89300547005235        6.02477275135564
H           -0.67175904478738       17.81459810300465        5.91154901256652
H            0.87736378820219       17.63867835821975        5.07472885093094
H            0.66017067354162       18.92263992264635        6.27725902107791
N            0.55685717652231       18.07941057041706       10.46038915638056
N            0.44605271270550       17.37279109004368        8.42250159783426
Si           8.31929733683461       17.96728065875414        8.88205142769159
Au           3.31270567688067       17.85343201595395        9.24177929510188
