86
 energy: -124.992552457161 gnorm: 0.000233617757 xtb: 6.5.1 (579679a)
Au           6.45786011527755        0.43767804888608        4.10104255304376
Cl           8.67606329636224        0.66020080275172        4.41265938684710
P            4.20846474743385        0.19950163309519        3.71704993452314
C            3.04797555305731        1.56876844040371        3.96008837610697
C            2.10952808223899        1.21542574730818        4.88501459023920
C            0.99848309951179        2.11672613837973        5.35025921258307
H            0.19815518206163        2.10042854866225        4.60098543510648
H            1.36230082402043        3.14700459643701        5.41608845557690
C            0.40923310229750        1.67174183813866        6.68840319235634
H            1.13001352811271        1.84096790593691        7.49456744654342
H           -0.48463365515544        2.26369923350751        6.90298069967180
C            0.05593162116281        0.18840185116469        6.61162870651965
H           -0.48473709769266       -0.11994519343875        7.51060461056352
H           -0.59257972325409        0.00719624991946        5.74834361098672
C            1.33669247982271       -0.63894305082145        6.49150885375528
H            1.08725523717799       -1.68664988190804        6.29607789178858
H            1.86029050000516       -0.60010558492802        7.45393645089510
C            2.26508700694334       -0.13044388164334        5.42302576630546
C            3.28892949053530       -0.84863478925837        4.86747503213707
C            3.77874234374923       -2.18984546775367        5.17050834542243
C            4.51576677398067       -2.85805773600696        4.17460943548279
H            4.66343792574699       -2.38521930552948        3.20970355966257
C            5.03672068083176       -4.10640536404244        4.42101173838707
C            5.87018155389118       -4.97857545047008        3.50313750873509
C            6.10995233200716       -6.19578625346334        4.37634737883664
C            6.81366864296521       -7.34784327121355        4.08057817195253
H            7.28864195486920       -7.48288118406571        3.11498074804986
C            6.90487056810269       -8.34279519645753        5.05117079248202
H            7.45334785377483       -9.25278956766971        4.83420081696353
C            6.30248745724361       -8.18353241963111        6.29368940868909
H            6.38686596913522       -8.97171559342138        7.03385025010992
C            5.59476666928025       -7.02738332019547        6.59880162889061
H            5.12731075058244       -6.90746478837416        7.56969956750457
C            5.50135749023323       -6.03292381649468        5.63329252306034
C            4.84012164820610       -4.73545607018985        5.66274798993928
C            4.12783438869057       -4.08447585353520        6.66126793284496
H            3.98418463298232       -4.54344338785720        7.63313313851684
C            3.61050167641509       -2.82104611317807        6.41098889880254
H            3.10387989251045       -2.30811754863940        7.21771389427925
C            7.19196869363934       -4.28318633990888        3.14290404991367
H            7.81442533150539       -4.94601452733406        2.54197757933243
H            7.73413413198197       -4.01852170483653        4.05033424130469
H            6.99552520685284       -3.37397346118882        2.57430864145563
C            5.09512979954783       -5.34433677229332        2.22880739197043
H            5.68550540013370       -6.02001667019004        1.60991600097369
H            4.87277705543189       -4.44533177496287        1.65324382893927
H            4.15731005108194       -5.83520818950026        2.48898073301948
C            3.18400442229928        2.79975120540522        3.19032689977376
C            4.47304697894459        3.24298814906959        2.84881283942117
H            5.33772635440062        2.70147894153971        3.21674846373724
C            4.63019808945553        4.36298551210241        2.06626372582218
C            5.91506282883596        4.99332684196221        1.56622858282182
C            5.38510483903207        6.16659452177177        0.76378982168638
C            6.09123911113218        7.12324396697744        0.05921512592728
H            7.17502433467845        7.10766193526581        0.02380111368909
C            5.38302164069459        8.11783722293458       -0.61116055158144
H            5.92278704401369        8.87581720248038       -1.16804624913710
C            3.99384264493421        8.15106302896085       -0.57533198551052
H            3.46362974863866        8.93518125193220       -1.10474869744775
C            3.27702681538455        7.19226269967402        0.12999990039744
H            2.19343404786680        7.22198984060283        0.15501291011150
C            3.98000389013634        6.19876050008294        0.79984353915629
C            3.51160374460987        5.07817652245573        1.60397337843677
C            2.23074749640176        4.64996272390772        1.92941784640047
H            1.35695511069563        5.18106121425502        1.56851463028740
C            2.07708019650092        3.51550333662344        2.71323505431754
H            1.07611697237292        3.15806884829961        2.92155546892769
C            6.69136414043589        4.01281592949780        0.67366424107176
H            7.00358723322685        3.14410440310878        1.25352607089923
H            7.57719508351441        4.49769964138838        0.26381832161869
H            6.06120460280963        3.67685516570802       -0.14996184407311
C            6.79645383551549        5.46260664370082        2.73260135611313
H            6.24152980970089        6.15420901445619        3.36630223258068
H            7.68382818997573        5.96858130426158        2.35259433595729
H            7.10956791417662        4.60889955051027        3.33344156622230
C            3.81232804734717       -0.32613248004117        2.01886450806816
C            2.57418826372865       -0.88079827172066        1.68667402644274
H            1.82609915318324       -1.03055488033573        2.45740574933966
C            2.30189290661868       -1.24482163763201        0.37798745563984
H            1.33991151371675       -1.67909544721265        0.12977258844102
C            3.25605413235653       -1.05385158501985       -0.61362499511279
H            3.03972384866232       -1.34038854602116       -1.63647801660880
C            4.48607758824222       -0.49731751921980       -0.29266578511122
H            5.23373202386631       -0.34594179992385       -1.06290021859340
C            4.76373696048737       -0.13704833332893        1.01710642625804
H            5.72663817622270        0.29299187747545        1.26907376256541
