46
 energy: -68.738552251820 gnorm: 0.000145217707 xtb: 6.5.1 (579679a)
Au           3.39199639684996        1.16627851073768        4.35483207515524
P            2.02386712328329        0.78365253159245        2.53758313439122
N            4.62786959320962        1.50893248633891        5.99459675154487
C            5.85484629409113        0.98199103008546        6.04893028983573
H            6.15590496550397        0.37493773275078        5.20465418944333
C            6.70144726989841        1.19424005240531        7.11999151534194
H            7.68734893688990        0.74671553884692        7.12016966029847
C            6.27022712017202        1.98003386069227        8.17885896592385
H            6.91194366941293        2.16440097913323        9.03196555328196
C            4.99530965872052        2.52345595898174        8.11626190999758
H            4.61087720924870        3.14343458614353        8.91631723753501
C            4.20621628909009        2.26633377815717        7.01175116228432
H            3.20630631523343        2.67244484348468        6.92683564614322
C            0.40005806705991        1.57313392646299        2.69689838650265
C           -0.14483063109081        1.74595447449368        3.97255598130279
H            0.41681890105927        1.42066614334366        4.84306634326225
C           -1.39281416072266        2.32633783900937        4.13151978507970
H           -1.80493670005987        2.45295528700900        5.12580874578687
C           -2.10923278945975        2.74738811441919        3.01917216756294
H           -3.08348671076487        3.20505140152482        3.14378169671911
C           -1.57474343211158        2.58592984487404        1.74802001171460
H           -2.13023920152092        2.91649582149760        0.87819635787036
C           -0.32843352381165        2.00249897963893        1.58369751536632
H            0.08395639097258        1.88142075389903        0.58838588658255
C            1.69609996078477       -0.97639180553717        2.24558370278206
C            0.40608215596852       -1.50718024845400        2.18800225878613
H           -0.45292615399906       -0.85796680129090        2.31186469125823
C            0.21951424932643       -2.86392277173431        1.96911052965109
H           -0.78627032018499       -3.26501004769325        1.92410171010785
C            1.31268860871508       -3.70308796857455        1.80751959710308
H            1.16296555185144       -4.76239644481019        1.63559212667190
C            2.60028554680899       -3.18505836026091        1.86924127448949
H            3.45692857967580       -3.83734386031226        1.74589155407224
C            2.79292077817080       -1.83196609468355        2.09193387907570
H            3.79921475478622       -1.42817968766304        2.14246955627226
C            2.72213201237605        1.40013910368738        0.98262346423206
C            2.49677274823855        0.76100110754869       -0.24010510202321
H            1.90749191961184       -0.14818023900434       -0.27412394408891
C            3.03079403459222        1.28167892914362       -1.40854536766395
H            2.85120135791223        0.77693507160794       -2.35059365006161
C            3.79185279979532        2.44206191938268       -1.37308537982632
H            4.20926729400880        2.84511287369394       -2.28821145766329
C            4.02206863817418        3.08398376916612       -0.16336360210003
H            4.61806847420555        3.98853852856376       -0.13083948058075
C            3.49311846098818        2.56597236448042        1.00750537199469
H            3.67655149704070        3.06667618721900        1.95327729858783
