62
 energy: -124.154622957873 gnorm: 0.000378846351 xtb: 6.5.1 (579679a)
Au           8.55900986118363       11.91701047624302        8.43494009675679
P           10.53796055634044       13.03740783581505        9.10666986941954
Cl           6.64933829094812       10.89411928143017        7.69930323266365
Cl           9.73810116211686       11.34733099605256        6.51665694626117
F            7.99087891062243       10.12979819072871       10.84144865145928
F            6.68963025467962       10.52239890733703       13.17891642621004
F            5.81205253013274       14.95640647395259       11.90613066677239
F            7.09117733555483       14.53462881904441        9.57500427212578
F            3.92601034420142       11.34631612204292       13.50080664049255
F            2.76470430555223       11.81449381233368       15.90131541235056
F            5.94758949535097       15.12543143741711       16.80935280855888
F            7.13587554042769       14.64603573397008       14.42395231439638
C            7.56057684183216       12.31364622317429       10.14279612842151
C            7.41305774484929       11.30723202536444       11.08187998721076
C            6.74984386128545       11.50294442718039       12.28393491829572
C            6.20186249538211       12.74517364696691       12.59724353075018
C            6.32822775120843       13.75868787567101       11.65032406616079
C            6.98150111304909       13.53057692665744       10.44745516058640
C            5.54947844624180       12.99315441700420       13.90241561309811
C            4.43202684535347       12.26693637684724       14.30936228899859
C            3.83188611265733       12.51347687345071       15.53826484867202
C            4.33052443462740       13.48161036041879       16.39426800182293
H            3.86173827018722       13.66872766347408       17.35035260867629
C            5.44563684232458       14.20196408521181       15.99823819102055
C            6.04636143831278       13.96396226540098       14.77010576563160
C           10.38267841471330       13.49698778697494       10.88353323387840
C           10.11907251964568       12.44135512963606       11.76945777737500
H           10.04576234210348       11.42904370099142       11.39421888851309
C            9.92344489286118       12.65499580278138       13.12336627053919
H            9.71857562279413       11.81117487793804       13.77205975991826
C            9.97189504997003       13.94204459566654       13.63943209188994
H            9.79784317033515       14.11795231589356       14.69395732710339
C           10.23528288965665       14.99991280323278       12.78488783690930
H           10.27756086788213       16.01263895548313       13.16871926185606
C           10.44352665324596       14.78236366198230       11.42979108244334
H           10.65208252495388       15.64569106299274       10.81538488727044
C           10.78171150978643       14.63514748254456        8.11411541723258
C            9.53125718211477       15.50986349217984        8.32012788729842
H            9.30348525286893       15.70090588488543        9.36469444218729
H            8.66411719880614       15.02870518021566        7.86949730966778
H            9.68115865225908       16.46900459390795        7.82306187831586
C           12.05510951301275       15.40004555665333        8.51305020884802
H           12.94108618822006       14.89481217677100        8.13233262283031
H           12.16566138761170       15.51102378807630        9.58846687069722
H           12.02243588797954       16.39677596814061        8.07063967828853
C           10.85271078090554       14.38419887802860        6.59780110779302
H           10.97141368462505       15.34709799896289        6.09815968531966
H            9.93828901269342       13.92320147446612        6.23251302581112
H           11.69150130727775       13.75508739550732        6.31635220725023
C           12.10307866863914       11.94391079823471        9.09817982372922
C           13.06881737108040       12.37978438685038       10.21255590221176
H           12.63538347392451       12.22112540203989       11.19863983184392
H           13.33878811525746       13.43050319453111       10.11524535587323
H           13.98056356262386       11.78500137985237       10.14234752621859
C           12.86216173958695       11.98086646538329        7.76438095488521
H           13.67311306462986       11.25167304926236        7.80755122035701
H           13.30425598341926       12.95727455039016        7.57859900635156
H           12.21137557898986       11.71180150646876        6.93549131965132
C           11.69615577008360       10.47967440371348        9.33720632130502
H           12.59639803572269        9.86551943927922        9.38435656820155
H           11.07790437880966       10.11504388924497        8.51922925650928
H           11.15319096651001       10.34791971770770       10.27035770681532
