38
 energy: -71.587655676832 gnorm: 0.000646051822 xtb: 6.5.1 (579679a)
C            3.10857062206014        1.32136255623450       11.88015612519129
C            3.23550378176574        1.57489658202543       13.24178074972877
C            2.52516731413326        2.56328988702359       14.03539666967777
C            1.21479327224932        2.89910863481251       13.66655649962644
H            0.76129354956540        2.40223699372642       12.81825157981475
C            0.49848951099677        3.84190081171839       14.37699528088348
H           -0.51677883526631        4.09909703611319       14.09964303945220
C            1.09518451435607        4.46414658954678       15.47054790411601
C            2.40308662553338        4.16568566816330       15.84097053526068
H            2.85266950840668        4.67835134713396       16.68300153860619
C            3.11333282334551        3.22139854382837       15.12326890208023
H            4.14313032122870        3.02040987935920       15.39174371687158
C            4.63496416338072        1.17116899954713        8.36145749460931
H            3.69484056979954        0.79551274907391        7.97565581250834
C            5.35865234796742        2.10796345370620        7.63626421850263
H            4.97405905136464        2.46620931010868        6.68860095016900
C            6.56405983732215        2.58767809052612        8.12714577318151
H            7.12695836751278        3.32174392293870        7.56212687127172
C            7.04888619082163        2.13029688565339        9.34563864333561
H            7.98982825772204        2.50488944587469        9.73284393613716
C            6.32737413966028        1.19673007280287       10.07419162123184
H            6.69595603067646        0.84553993685370       11.03257918602817
C            5.11853123687392        0.71301377455036        9.58180234215804
C            4.32181128484379       -0.27741054734545       10.40151655743165
H            3.38685742993905       -0.53183390577655        9.89849615216591
H            4.89464382783371       -1.18669920441601       10.60137019947779
C            4.65879296490319        0.46131222467862       15.04610548033333
H            5.01607946965090       -0.56671691646284       15.08969555628215
H            3.84407677726001        0.60577946787837       15.75418869694388
H            5.47884135612927        1.14134046634280       15.28200900393597
N            3.98921441707339        0.32757924634619       11.67757346839322
N            4.64161737771663       -0.05495007268850       12.75028567230025
N            4.17819834614512        0.71330600443806       13.70305926256608
N            0.34352418654296        5.44131720112261       16.23995883436993
O            0.90067931574142        5.96046087470434       17.17312495287893
O           -0.78901003702845        5.66478885077714       15.90180482311961
Cl           1.11461046454425        3.06738377974920        8.55262938140379
Au           2.13190961665783        2.15831135936549       10.33976256802978
