37
 energy: -73.163300734736 gnorm: 0.000127896868 xtb: 6.5.1 (579679a)
C            1.86085713489396       -1.23345027532924       20.65032735109144
C            0.14554446914203       -0.36566622591751       19.02710240091571
C            0.91724115045101       -2.14261401551229       20.33241456061100
C           -1.14328951420035       -2.46238339326899       18.98888179903226
H           -0.78143916805145       -3.46892446810042       18.75057764824392
H           -1.55425932879617       -1.98737597822803       18.08859216721659
C           -2.20003554106778       -2.52761917493671       20.09672512967148
H           -1.74628033695246       -2.97882516683062       20.98568477601523
H           -2.51411087975484       -1.51095575656017       20.35246653252832
C           -3.40838665009957       -3.35084249395845       19.65802965279299
H           -3.87832841992673       -2.90616199980642       18.77890586944874
H           -4.14667305793533       -3.39438833359384       20.45984308585891
H           -3.10735262124505       -4.37012123419500       19.40988662980541
N           -0.01726800259743       -1.65777091264689       19.42190970659755
S            3.16417819637255       -1.50653577657698       21.74237885205443
S            1.57668341996612        0.27468596003711       19.80669886608375
S           -0.83478389886587        0.44335643503921       17.97852649850991
S            0.81443804990890       -3.75301580943273       20.94463170110361
Au           2.69211082399140       -3.72208496410565       22.32953115294841
C            3.52371276284043       -6.21079223226037       24.00874788983070
C            5.23900303926305       -7.07856348319374       25.63199015399157
C            4.46732148889376       -5.30162897570083       24.32665305265884
C            6.52785333339017       -4.98186243679903       25.67017753679861
H            6.16602713786270       -3.97530246418812       25.90843788459605
H            6.93879765622807       -5.45685035164704       26.57048828077739
C            7.58460049214489       -4.91671411499627       24.56232883975075
H            7.13088087144023       -4.46547357762528       23.67336909938179
H            7.89858677062466       -5.93340498464407       24.30658967126145
C            8.79302212742042       -4.09359225374574       25.00101451482978
H            9.26291470179534       -4.53829485248074       25.88015306984585
H            9.53131876512376       -4.05013935922448       24.19920493975493
H            8.49208157245940       -3.07427901716333       25.24912709709167
N            5.40181478004067       -5.78646035559273       25.23717778731943
S            2.22046642239201       -5.93768824924099       22.91662754693049
S            3.80786941036857       -7.71892327221104       24.85238906198500
S            6.21935109538246       -7.88757800249801       26.68055381396690
S            4.57013174709771       -3.69125843286389       23.71435537869952
