67
 energy: -86.916687305948 gnorm: 0.000056590872 xtb: 6.5.1 (579679a)
Au           3.04117074998954        2.67986297752952        1.53653695036581
S            3.35730434210213        2.77278035589645        3.87981763807183
S            2.44768813264615        0.18823375360378        2.74290699137312
C            2.92089192164729        1.13979040458993        4.02621867665827
O            2.97588865421132        0.67648348713584        5.27002858846241
C            2.59431042906035       -0.67742881685910        5.55312808966715
C            3.75366979006196       -1.61635857834426        5.22551753421056
C            2.20772862135661       -0.72110293400174        7.02632871249803
P            2.78651094788916        2.57994992635372       -0.77275583516582
C            1.26340945499615        3.45997561370921       -1.38596635979615
C            1.28581038457447        4.92307728836228       -0.91711229309231
C           -0.04335726284882        5.60690835740597       -1.24619770265180
C           -0.33576045884443        5.52953910449587       -2.74628077952963
C           -0.33608485713328        4.07500726125051       -3.22149830276747
C            1.00011914631642        3.40024385026006       -2.89617997840520
C            4.18641404322272        3.25951780045775       -1.81121721630769
C            5.48174300353247        3.27738115660530       -0.98342542709330
C            6.59836195826288        3.99466813185954       -1.74483843353886
C            6.84229981024637        3.33167385378149       -3.10193475501674
C            5.55052066040336        3.29517704311445       -3.92071865459557
C            4.44583591426414        2.56111848770329       -3.15444321397399
C            2.56143186848112        0.79939506734986       -1.26862537855382
C            1.23109789267658        0.27437392846477       -0.70243391759589
C            1.07618132680854       -1.22948844620668       -0.94082334988897
C            2.24907295551959       -1.99982546742213       -0.33507223010948
C            3.56027976719061       -1.51093547812694       -0.94959080128782
C            3.73784390132131       -0.01262189728107       -0.69971893746079
H            1.73010216724757       -0.92863918693613        4.91515578132759
H            3.48169142752938       -2.64147526591174        5.47391359101173
H            4.64071145223382       -1.33198749001244        5.79054194593221
H            3.97411020817525       -1.55416409742640        4.15964214964287
H            1.87551198671697       -1.72303069981788        7.29486009017030
H            1.40060046675236       -0.01417625304570        7.21429977737522
H            3.06202750672147       -0.44907687329330        7.64584642582473
H            0.41944712267399        2.97430575410709       -0.87704879897304
H            1.45924928519901        4.95845128772248        0.16279746729427
H            2.10466923735771        5.46283701609427       -1.40445539837572
H           -0.85066183925432        5.11985782653989       -0.68894277600425
H           -0.00120905641931        6.65370667289075       -0.93155291464421
H            0.42482018282127        6.09361817291630       -3.29709227203968
H           -1.30815994935005        5.98488784719639       -2.95517612172587
H           -1.14965355100441        3.52756205787539       -2.73376735601169
H           -0.50650220759669        4.03914445657975       -4.30155346580193
H            1.80150928540420        3.91410159447906       -3.43578788296520
H            0.97456289920482        2.36082857262674       -3.23472881860777
H            3.92536059969966        4.30570437357518       -2.02619193846058
H            5.29952726527612        3.78827005419937       -0.03349645218471
H            5.79212231367270        2.25336788792598       -0.75334817902707
H            7.51664836176266        3.97007457542676       -1.15099906399791
H            6.32137771520211        5.04395877028527       -1.89343695493417
H            7.61025307535093        3.88546122718749       -3.64977991619121
H            7.20768852104639        2.31022886423335       -2.95039624165539
H            5.22490658300323        4.31714281946631       -4.14285947873166
H            5.72974660637895        2.78523491205895       -4.87190442972845
H            4.75548810674293        1.52547867014328       -2.98731987396918
H            3.53651850296711        2.54454277801889       -3.76003995792386
H            2.54471544371813        0.68221907271124       -2.35955940441985
H            0.39444998978611        0.79356604454746       -1.17841923875080
H            1.18587523601400        0.47765484619328        0.37257758651132
H            1.02346772713598       -1.42627073721469       -2.01758620660091
H            0.13730654641942       -1.56594971969759       -0.49123525599901
H            2.27162985836729       -1.84436439534604        0.74912490805755
H            2.12606886936440       -3.07044969478070       -0.52281667150671
H            3.56114477891546       -1.70877876236032       -2.02733402503774
H            4.40360916319082       -2.04954324808778       -0.50747591555572
H            3.80949798627292        0.16443353996746        0.37870175261247
H            4.67578702730745        0.31897049726741       -1.15390608034964
