70
 energy: -152.373080580937 gnorm: 0.000135690804 xtb: 6.5.1 (579679a)
Au           4.40788532404799        4.23446820701192        4.71833774456777
C            4.78509473095900        5.36641371788691        6.35313430950752
C            4.39073184893683        5.05780039491945        7.64517415103973
C            4.61249243249763        5.91428700798008        8.71783452690555
C            5.26049571039044        7.12679287038971        8.50494524271744
C            5.68687922218372        7.45787780978896        7.22207837965667
C            5.44959093866603        6.57087640414318        6.18229174583920
F            3.74488192652495        3.91581270814303        7.86212195250529
F            4.18410136945883        5.59152106355296        9.92795211522291
F            5.44964181942221        7.96602122973789        9.50671489198666
F            6.28661208448789        8.61713003698032        6.99043632167336
F            5.84677221844311        6.90136380154993        4.94800425943792
C            5.28950697024940        2.61973775657626        5.64339348525884
C            6.64829447698112        2.57096946991964        5.90343836031486
C            7.25087964463154        1.51443375570127        6.57414867780645
C            6.46275310653199        0.45450818843762        7.01389789530762
C            5.09161731029965        0.46961669067749        6.77286729216634
C            4.53836523280159        1.55076799523544        6.10067451735734
F            7.39734233092799        3.59106679974682        5.47656260404419
F            8.55656394948923        1.51082416471202        6.79187480985466
F            7.01368022732315       -0.56358902274743        7.64898431654386
F            4.33053776026254       -0.53687331454647        7.17320465284673
F            3.22066264498018        1.56866075197235        5.86123396289912
N            4.13989052298758        3.26438696784903        2.90306343366953
C            3.55504758866623        2.07091511546144        2.75850232807989
H            3.20177835707188        1.59287817106335        3.66178688269675
C            3.40661488537319        1.47139453615570        1.52315552410425
H            2.92842161818170        0.50280113686097        1.45345890214144
C            3.87937499903538        2.12408459377257        0.39481252888440
H            3.78631159339827        1.67877369205569       -0.58823411288423
C            4.46921786245811        3.36961206651687        0.55269962107884
H            4.84387866756914        3.91924437818029       -0.30207532661883
C            4.58324162565788        3.91530626332224        1.82021936576654
C            5.17172530114158        5.28303994856349        2.04996893517599
H            5.99859389104603        5.22567800896672        2.76541793100687
H            5.54930282127147        5.70100616625276        1.11617823396282
N            4.13595727172927        6.16597589756754        2.58777751951979
C            3.75368739203549        7.35684780532285        1.80887143284642
H            2.66160078646362        7.39718446197623        1.75247510842455
H            4.16022004048924        7.25493273639035        0.80152528163000
C            4.28689105295577        8.59116314610973        2.50208194323072
N            3.44553437664150        9.15176506095493        3.37260802818367
C            3.85033571707512       10.22027593634828        4.05680098659602
H            3.13278287702876       10.64734708887993        4.75013235677656
C            5.11623655075606       10.76425742473646        3.90474661603948
H            5.40941255141333       11.63108525675596        4.48337550569431
C            5.99478464946498       10.17848082189767        3.00629029157374
H            6.99346980997995       10.57462169430148        2.86540937274863
C            5.57055222252570        9.06821325432330        2.28913921067353
H            6.22525373750325        8.57955515851895        1.57742069563533
C            3.59961914059119        5.86572069997929        3.76074116710566
N            2.67169140323612        6.65995209641569        4.26348718169679
H            2.57578040178048        7.62104315159116        3.90918856092261
C            2.04419147365663        6.39747000878960        5.50484286965705
C            1.52065702433268        5.11166008928988        5.75733364619883
H            1.50232930994042        4.37740284433531        4.95935735023397
C            0.99272174667590        4.82618726448333        6.98953691768887
H            0.59446814367015        3.83880851732004        7.19328671834913
C            0.96622752440258        5.80269594639555        8.01140740339197
C            0.47299073114655        5.51656619244612        9.30568694097266
H            0.10347706461768        4.51895193766259        9.51461852578564
C            0.47282057708840        6.48031102236677       10.27874228142104
H            0.10213683641035        6.25345435878335       11.27138263469951
C            0.95438736169129        7.77379967987716       10.00237144523072
H            0.94589217863810        8.52225738657313       10.78608923947175
C            1.43192432872033        8.08708266037069        8.75757188621409
H            1.80572786902039        9.08189159416770        8.54141492600772
C            1.45552143244451        7.11155769735490        7.73300737835989
C            1.98774384737581        7.38883887527542        6.45392130545209
H            2.38748955415856        8.37373269963375        6.23949680903333
