73
 energy: -95.759825208998 gnorm: 0.000608989462 xtb: 6.5.1 (579679a)
Au          -0.45840496097303        0.79466202571968        2.07189904094261
P           -2.61484143202831        0.54421239389569        1.32456038829092
O            4.59644864809917        2.27024167499523        2.95658222595123
H            3.97950873701584        2.83774237437299        2.47821366682316
O           -0.52325040946243        0.10315686740113       12.25447746990874
C           -3.86519949815249        0.28900744072139        2.66994753587401
H           -4.86910109158114        0.56807114528325        2.33629678746162
H           -3.89416457189075       -0.77738387281561        2.91328927234575
C           -3.50696733326633        1.06452935689972        3.93880080507580
H           -2.50925800959169        0.78860321429698        4.28027607197719
H           -4.22260792392763        0.83643591710029        4.72952513102190
H           -3.52105523023184        2.13915311210153        3.76012865633864
C           -2.93717909516953       -0.89039220117908        0.19710197097125
H           -4.00860821453879       -1.02112642442737        0.01712112806961
H           -2.47202813503482       -0.67418149977569       -0.76941867364558
C           -2.34397135720224       -2.18567351065998        0.75318833161151
H           -1.27730665402472       -2.06367183535356        0.94427576473144
H           -2.47936927451975       -2.99550764840441        0.03550491894665
H           -2.82986906786739       -2.46821329309759        1.68741008368433
C           -3.29887663596973        1.94790447294468        0.32687294098638
H           -2.78661056439191        1.94226128788014       -0.64026181925797
H           -4.36539770025972        1.80911710444194        0.12573745958003
C           -3.07143416609820        3.30479291480868        0.99359079891846
H           -3.65880483976112        3.39404698429388        1.90680398342323
H           -3.36723161346687        4.10616890800514        0.31538365839453
H           -2.01881351584750        3.43366927235026        1.24654784776091
C            1.39458580015808        1.02487590834587        2.74735915149731
C            2.51534690012968        1.16039544663022        3.18213199313876
C            3.87204394041786        1.32166660811505        3.71876729511496
C            3.83122107098829        1.68984540123602        5.23727867093517
C            2.70696948579009        2.63533005696227        5.66742259045826
H            1.75458537479828        2.28911421773207        5.25333875264190
H            2.88924813042209        3.64624663758996        5.28982473688557
C            2.60536243171358        2.68227794399174        7.19860481564926
H            1.74818037398633        3.30868887588674        7.46073061888575
H            3.49823745718369        3.16406890364675        7.60622784704620
C            2.42787204145830        1.28456112441909        7.82264677081933
H            1.48436034421459        0.86916358064600        7.43622673845086
C            2.27256592004143        1.35163891911318        9.37218048386403
C            0.96646337686712        2.11282920200506        9.69051833053433
H            1.10078910458675        3.17782648912566        9.48340643707555
H            0.17235574397032        1.74427250548719        9.03249497427263
C            0.51042494316604        1.94488250535974       11.13796018654635
H            1.25354974821638        2.35334749941394       11.82959391385584
H           -0.42899393994012        2.47492083200248       11.30951290008206
C            0.32692580866692        0.48149838853373       11.48283310312811
C            1.29356856278758       -0.42413946121839       10.85435934893478
H            1.26488342979200       -1.44744832414647       11.21599451466955
C            2.19757852914262       -0.05249530263128        9.93669551267643
C            3.22976340485079       -1.03240137244420        9.45640213324429
H            3.01526711640853       -2.02913530602671        9.85237640798824
H            4.21023807356203       -0.72727913735045        9.83999508626340
C            3.28771579442000       -1.07580409508545        7.92921251464704
H            4.08543395318666       -1.75664600735503        7.62025656761432
H            2.34137437843062       -1.46214061310595        7.53668098402595
C            3.55032693817896        0.32507115004779        7.37277914638057
H            4.52197351591077        0.67306137755152        7.74524781530439
C            3.55286919797469        0.30636675012572        5.84257888009470
H            2.54188191035724        0.01433088906317        5.51826031363073
C            4.54190400937651       -0.62008636671313        5.12386531604570
H            4.18580198564345       -1.65260372334783        5.11111899827543
H            5.51979461929468       -0.60528203862695        5.61281907842101
C            4.62849793147695       -0.03784808646398        3.70016346401114
H            4.17822051722280       -0.71113256900983        2.96820040486927
H            5.66375368902567        0.14003711721688        3.40355912140875
C            5.19693747195633        2.28015807277114        5.61689475689506
H            5.30966510727013        3.25354635600886        5.13878686586825
H            6.00905021067024        1.64171985469955        5.27265427158023
H            5.29906940448510        2.41348978402256        6.69312900615213
C            3.46615748632239        2.06142874116006       10.04434731566182
H            3.41791585263091        1.92808637442385       11.12523572740431
H            3.44990447326964        3.12965376641862        9.83089174724423
H            4.41245228937659        1.65181494178396        9.69377894355139
