84
 energy: -160.912664984322 gnorm: 0.000184299653 xtb: 6.5.1 (579679a)
Au           3.51170665338438       -2.22413124227208       -5.09302648428354
Cl           0.72369592655163       -1.98305349994887       -5.11421103340691
P            4.12309510736049       -0.26758711877885       -6.22331775702452
P            3.75345935094347       -4.24716038302128       -3.94021114533137
F            2.84500702351373       -0.94956163666932       -2.36626925751413
F            0.67571250011439       -3.32452790565204       -8.61835484653461
F            2.68659096924508       -3.35305738662896       -7.82996502855775
F            2.48188054480335       -0.75923203701963       -0.24626830907118
F            2.35895047471500       -3.46047156450212       -9.96142312996798
F            0.83830495285634       -0.62191942965420       -1.63736255019152
O            2.36946465107428       -0.73736786404090       -9.85961276531289
O            2.03149232667877       -3.44622089546912       -0.32798301292389
N            1.71488623715976       -0.83819546045611       -7.67540669111175
H            1.28397972540039       -1.41354100061926       -6.93799694959996
N            1.45685227322065       -3.26041563166436       -2.52903047756988
H            1.14761519593637       -2.62818070136762       -3.28102330147967
C            4.58964626674344       -3.99912186963437       -2.34675825032492
C            2.31183802888502       -5.27629003260206       -3.51851642913917
C            4.44759568858429       -4.87737343004733       -1.26921589197100
H            3.81279953090579       -5.75060043779653       -1.36390610292785
C            2.88523451893734        0.99592924787321       -6.65465799142983
C            1.02700777612229       -7.31339592179607       -3.44854313782959
H            0.91909495768335       -8.35981930096710       -3.70994621422776
C            1.78300238666971        0.55692206234119       -7.39298816820126
C            4.93559056722995       -0.63628732930027       -7.80536763904342
C            5.36549079995470        0.66527342342769       -5.27369813188207
C            1.96479486006865        3.22167948953910       -6.71973454508807
H            2.03216615109690        4.26924037707077       -6.44944476072110
C            1.79885151880787       -2.80194494866634       -1.32099216476993
C            5.88258882794319       -3.49134072171146        0.07489989415721
H            6.37650178286303       -3.28970221791078        1.01848824572297
C            2.00484958658918       -1.33957756590843       -8.88002874126538
C            4.83501595000084       -5.39409069624311       -4.85192315520191
C            1.29098232978513       -4.64962532961951       -2.79880955200177
C            5.59115450321535       -0.07138076764445      -10.05963425400263
H            5.60823687773462        0.63946781113784      -10.87767369554268
C            2.16128129726800       -6.62197817247486       -3.84947290387136
H            2.93273913909323       -7.12993735531560       -4.41653309580967
C            6.56301698230037        1.12900746904206       -5.82011458101383
H            6.77742590592722        0.96652948434582       -6.87048945559561
C            2.96057863376432        2.34520293143708       -6.31281717160294
H            3.79938033168007        2.71088219383485       -5.73193519955760
C            0.79153798799408        1.42609295371528       -7.81423498545193
H           -0.04389014839781        1.05467345417598       -8.39447168652408
C            0.88982896125426        2.76859337458720       -7.47288097218474
H            0.12111272130935        3.46279566661865       -7.79190403187274
C            5.51565259106076       -1.89568622077572       -7.97442844933374
H            5.47443400132569       -2.61601672110928       -7.16386791559880
C            4.97984844574163        0.27399417837012       -8.86472707698616
H            4.51455411694980        1.24721203799376       -8.76029884893968
C            6.03133318323202       -2.61175254302132       -0.98898139193103
H            6.64098634385810       -1.72167270581767       -0.88122331515639
C            5.38766192578317       -2.86344108313287       -2.18939470058648
H            5.49326515185800       -2.16617430103656       -3.01418796164892
C            1.97967430706095       -1.25341040387282       -1.36931783303314
C            6.46138002133740       -7.07220546814761       -6.38015890485205
H            7.09533428716469       -7.72222808939628       -6.97240838968917
C            4.62089642470881       -5.53605907379484       -6.22605815552159
H            3.81663852196733       -4.98673353618867       -6.70084167977740
C            0.16244327324646       -5.33466707001306       -2.38277281941612
H           -0.60436809342761       -4.82175864592972       -1.81577594098176
C            1.91600010811029       -2.89660135541950       -8.84629635157301
C            7.48444373215219        1.79586252748061       -5.02618643749203
H            8.41154772187305        2.15033142101337       -5.46265457894589
C            0.03621100997536       -6.67785772821111       -2.71199493584604
H           -0.84201087696851       -7.22912129843515       -2.39662977199628
C            5.11568239867848        0.88010470397412       -3.91485075771185
H            4.19238585287753        0.51867282427616       -3.47795006159311
C            6.16551703039759       -1.32541272026333      -10.21473456993130
H            6.63436926984230       -1.59586278507244      -11.15388881414981
C            6.03582768406832        1.54933499189761       -3.12476611953137
H            5.82779028499425        1.70877073210585       -2.07291415897730
C            5.09069238454339       -4.62215590784979       -0.06823578491813
H            4.96217758221284       -5.30492457911203        0.76366487292508
C            7.22389788911049        2.00736127830322       -3.67934065163799
H            7.94776957246916        2.52610584294710       -3.06120097475736
C            5.87974632135153       -6.10244347527437       -4.25604559123144
H            6.06527283758680       -6.00051587909809       -3.19259320461968
C            5.42535226471641       -6.37151393654962       -6.98368275522703
H            5.24652507824950       -6.47186363848384       -8.04813532007658
C            6.12805042133367       -2.23775847662323       -9.16892621341858
H            6.56694434284135       -3.22217054205336       -9.28645181271558
C            6.68616311269905       -6.93551568733743       -5.01719168762384
H            7.49516083933035       -7.47942674969210       -4.54248342643092
