43
 energy: -70.794491989356 gnorm: 0.000203346406 xtb: 6.5.1 (579679a)
Au          -0.90658870138276        5.56517983650507        2.94945365818430
Cl           1.12619932043678        6.54988788303799        3.17796657312684
P           -2.99239096712803        4.57872755698773        2.91788202407683
N           -2.79560826479816        6.12839363955618        4.86645481686506
N           -1.99008778347639        6.64894653959702        5.79314415156777
H           -1.21626503861502        6.09564196142916        6.12138391170984
C           -4.47272561616660        5.63647559794517        2.72648852038903
C           -5.40507037461330        5.38287180690809        1.71842693436782
H           -5.28167508211674        4.51945418488371        1.07559480269571
C           -6.49566087249221        6.21443300684913        1.51774330943505
H           -7.20580713246158        5.98804303653991        0.73070390589522
C           -6.67367904623490        7.33451605870246        2.31924578724412
H           -7.52335802654063        7.98913101824988        2.16231264629670
C           -5.75886035155414        7.61311486867592        3.31951571689757
H           -5.89414191301515        8.48564564638282        3.94895852223380
C           -4.66119278162809        6.77698946205079        3.53437643560891
C           -3.69446875924770        7.06673390774622        4.57305253129887
C           -3.45669562108188        8.21221649112265        5.35425147495920
H           -4.00242570225006        9.13971776256398        5.34979512631728
C           -2.35404053293937        7.90253396619918        6.11349114545473
H           -1.81094156253013        8.47691939128165        6.84602617278495
C           -3.36137871882502        3.46129705655470        4.31244709379216
C           -2.33091637665673        2.65439480251360        4.79589388106692
H           -1.34728986695906        2.71563760157216        4.34254520510498
C           -2.55282343967968        1.78108914986379        5.84910237721333
H           -1.74314176428096        1.15969534672023        6.21497310178788
C           -3.80886482721428        1.70636508249545        6.43638683630632
H           -3.98303783046584        1.02622137725340        7.26246782537828
C           -4.83983924978068        2.50733222120122        5.96507456970350
H           -5.82181190157269        2.45411182345640        6.42201070903938
C           -4.61938931500604        3.37947261721179        4.90920562391336
H           -5.42921183632158        4.00450397123495        4.54991235134666
C           -3.16539007107288        3.41795368068131        1.50057073204875
C           -3.94887898348324        2.26116261056437        1.53631654291123
H           -4.51364356093000        2.02019165059254        2.43034670023320
C           -4.01007301035013        1.41407536410487        0.44025750461684
H           -4.62130211371249        0.51945121159153        0.48530689751757
C           -3.29177249305655        1.70827415207367       -0.71097183725098
H           -3.34025044173203        1.04424107537488       -1.56658735018001
C           -2.50714236474248        2.85229868008767       -0.76048390653054
H           -1.93985323064683        3.08553810282645       -1.65449140974161
C           -2.44324308479700        3.69467370966365        0.33830822078591
H           -1.82106070888074        4.58304508915303        0.30064016352105
