49
 energy: -71.682908724463 gnorm: 0.000129434197 xtb: 6.5.1 (579679a)
Au          -0.58560946639151       -1.14351604427386       13.38941155797024
I           -2.68619171116995       -2.49033085505522       12.95039292954911
N            1.87402986049564        0.62774438429690       12.84449665847760
C            1.16543623588261       -0.09636493100957       13.72786297228626
C            0.90244331590962        2.10275456807032       11.17615457636817
C            1.45008222762634        0.86414157639581       11.50453973742580
C            1.13204109684171        0.08045337319058        9.26850107071026
H            1.21643770730904       -0.70499428888756        8.52506864642321
C            1.50465319769419       -0.71070898636840       16.06240764271248
C            2.13843259659544       -1.49202583886413       10.96120428732897
H            3.06190073144297       -1.36237629731995       11.52740610278145
H            2.34006749901256       -2.10519839374405       10.08372888085109
H            1.42682655668325       -2.01907148012829       11.59964675090999
C            1.24498225932968       -2.70901950988409       17.34839491277030
H            1.35416804164615       -3.78337418852245       17.45155533612744
C            0.55220252327972       -0.59251034290638       18.25287189065297
H            0.11751421423246       -0.01317956808041       19.06055009445328
C            2.23029309375757       -2.88724222129416       15.03528902410007
H            2.45815895503295       -3.90547126992343       15.34813765042421
H            3.13970085474316       -2.41674981050683       14.65872804408401
H            1.51054603574364       -2.92641185137754       14.21546161524518
C            3.03491029600415        1.11148261932178       13.40550957364641
H            3.73879080723853        1.70583902399428       12.84942253604671
C            0.58878183868125        1.31082446426138        8.91083286150240
C            0.23404365679754       -2.65991247097767       19.64633760925148
H            0.87022857062913       -3.51529666757510       19.87489322108989
H           -0.78736888324954       -3.02365389658858       19.51348513809694
H            0.24348738430024       -1.97506904946888       20.49431294263977
C            1.56874921286016       -0.15958627204764       10.56618186305432
C            0.95182057087924        0.05300798333608       17.08841347084905
C            0.76511483567716        3.17399972978898       12.22287492745953
H            0.27529864434680        2.77220840510384       13.11140768221031
H            0.17992757700941        4.01166009298330       11.84531723464897
H            1.74834751070235        3.54329028430559       12.52093841454933
C            0.78166047363848        1.53791744738803       16.92154844428906
H            0.20554902039409        1.95708786495574       17.74563185925486
H            0.26736268683720        1.75514388379130       15.98381615833494
H            1.75516362756708        2.03132652842656       16.89110324912874
N            1.89841513202772       -0.06571489248352       14.85404362264780
C            0.10037118768160        1.54386669934640        7.50732928569162
H            0.69832868536389        0.98147082483638        6.78991121400469
H            0.14275773930333        2.60247763315326        7.25078971284806
H           -0.93678271847294        1.21309232441295        7.41711290834492
C            1.65542052002291       -2.09185652783933       16.17249578520693
C            0.47661021255289        2.31325618891689        9.86979705997184
H            0.04611780326810        3.27117750972808        9.59779619340888
C            3.05052727565968        0.66951520128205       14.68590946848751
H            3.77025341368714        0.80034468824521       15.47509038288055
C            0.69559709294034       -1.96984764480555       18.39198679885115
