83
 energy: -105.785165381175 gnorm: 0.000222686556 xtb: 6.5.1 (579679a)
Au          -2.71815942748433        8.47747614125588        5.61722565604438
N           -1.00018219221721        8.25820934981808        8.10295789714286
N            0.20148970156488        8.69659959143100        6.39464519452678
C           -1.06336468776824        8.47720842023980        6.78166427829358
C            0.29383632240635        8.33720431839173        8.54809138997033
H            0.56581931454694        8.19170827798643        9.57885168280461
C            1.05780721016014        8.61713867569134        7.46201387002216
H            2.11987236195724        8.76229247806697        7.36956329042921
C           -2.17128551950965        7.97043428095643        8.91827530670684
H           -3.02605434773279        8.00012214262326        8.22720048901499
C           -2.07182549096836        6.57183107711978        9.53239288358091
H           -1.19608442698230        6.51733904854988       10.18584260688351
H           -1.94669447133657        5.83362246690322        8.73553728597694
C           -3.34166958249729        6.27639880311239       10.33420082593077
H           -4.20261208242403        6.25525795625185        9.65681440383904
H           -3.25572205033874        5.29066473554040       10.79860125460894
C           -3.56090206182538        7.33930094015215       11.41305047563810
H           -2.74126424080412        7.29919155086066       12.13761017732973
H           -4.49176660487789        7.13022521769478       11.94665052907965
C           -3.62937960843935        8.73821277335286       10.79654468607394
H           -3.74726803308280        9.48509419726426       11.58586545879855
H           -4.50114391721299        8.80800538997418       10.13562519357452
C           -2.36099668349374        9.04135770295359        9.99526966764135
H           -2.43826541614890       10.02376863359534        9.52136851562590
H           -1.49332643790761        9.05317431726653       10.66145574103271
C            0.57308988066264        8.98474873760457        5.01698868372285
H           -0.36583794093653        8.95279840515803        4.44559291732026
C            1.52521513481855        7.91560395419103        4.47566805590917
H            1.05536660770714        6.93219292293187        4.56397632208457
H            2.44532188622518        7.90654892080115        5.06737301240994
C            1.85039506086120        8.21819493344481        3.01098401849522
H            2.55495849863407        7.47238105515131        2.63402096135935
H            0.93401128194323        8.14621697045164        2.41372847748823
C            2.45111935497889        9.61815914292902        2.86633552573263
H            2.63863906605337        9.82689117206780        1.80982347924544
H            3.40982211399498        9.66043527151270        3.39312258075758
C            1.50765252500337       10.67964963364879        3.43631792020163
H            0.57943279527120       10.69885561130168        2.85444920193154
H            1.97208685043734       11.66615549105468        3.35989313421699
C            1.18184170676094       10.38459810071553        4.90247081678077
H            2.09228883135579       10.44146769530317        5.50641429833326
H            0.47239427366762       11.12168294117193        5.28845791303903
N           -4.43543143168427        8.26105562140705        3.13109517030878
N           -5.63761180588471        8.69992867604454        4.83892737753478
C           -4.37261336530765        8.48071551010599        4.45230384227267
C           -5.72928019634684        8.34024933130896        2.68550587346084
H           -6.00093453932793        8.19457190398487        1.65468766060310
C           -6.49358333612940        8.62045368146233        3.77128073095898
H           -7.55567493867634        8.76567242525212        3.86336242228507
C           -3.26420566062858        7.97232921364950        2.31627523899805
H           -2.40953717316922        8.00273527055291        3.00744290367599
C           -3.36345417047195        6.57307101161069        1.70353681944471
H           -4.23915521141049        6.51779620119899        1.05009724198184
H           -3.48847122348947        5.83556049859163        2.50106210819688
C           -2.09353623376634        6.27706421286729        0.90201402873365
H           -1.23263931986462        6.25648384657340        1.57947842754486
H           -2.17940847299103        5.29093865998950        0.43842649431925
C           -1.87414119862405        7.33899669620124       -0.17776091992704
H           -2.69364857014991        7.29820694644464       -0.90243015912000
H           -0.94316857601259        7.12951058991148       -0.71101237096189
C           -1.80587376948721        8.73844031067711        0.43754433645640
H           -1.68788279203385        9.48464504488756       -0.35239640633098
H           -0.93427271252865        8.80887612690652        1.09861047443282
C           -3.07446687625756        9.04215379570113        1.23823053185899
H           -2.99755161266501       10.02505095794968        1.71116340658156
H           -3.94199236559587        9.05306596807389        0.57184127815326
C           -6.00967947570449        8.98747535723646        6.21657393342146
H           -5.07061827526455        8.95760319839735        6.78786281465511
C           -6.95940652684223        7.91633747146086        6.75826694840406
H           -6.48736856530406        6.93393108867918        6.67031149864975
H           -7.87950159795392        7.90501009331015        6.16658208816216
C           -7.28520062889373        8.21871425387887        8.22287771252093
H           -7.98822881199155        7.47157379025927        8.60008641139396
H           -6.36865321704826        8.14873743265956        8.82012117752614
C           -7.88875256839045        9.61749420064334        8.36728297232423
H           -8.07660875354597        9.82610137973695        9.42376174894394
H           -8.84757681013057        9.65770268637991        7.84055936120638
C           -6.94749593694008       10.68075755653080        7.79696002437265
H           -6.01920796594152       10.70191303495215        8.37864225404621
H           -7.41387456748945       11.66635399196076        7.87323868267734
C           -6.62140320888897       10.38600860725913        6.33082996242000
H           -7.53212603041467       10.44073384922543        5.72710903897400
H           -5.91361706053605       11.12446005902272        5.94441077860506
