47
 energy: -71.676103730460 gnorm: 0.000140258370 xtb: 6.5.1 (579679a)
C           11.57235647332904       14.03488314680601       13.30477766663093
C           11.19621005632509       15.06048993619039       13.83295987561083
C           10.75826024772161       16.26326517902479       14.45230927737182
C            9.55821621684450       16.87045104157465       14.06045706347030
H            8.95990827112558       16.41464105989387       13.27965826835667
C            9.13075989520523       18.04406345026122       14.65984319064749
H            8.20528009760647       18.52340218808841       14.36607920041227
C            9.91513415116509       18.60389584084603       15.65356500353537
C           11.10647530644227       18.03346804557964       16.06767194364992
H           11.68990166374110       18.50458402049118       16.84885843279875
C           11.52445247351360       16.85962053154530       15.46229051723047
H           12.45447428821996       16.39537081849430       15.77047786313290
C           12.95479068302661       10.71059947443188       11.57632280586860
C           13.58046577100140        9.22271912275872       10.01944858022038
C           13.82388803613499        8.49373352007392        8.86036678131682
H           13.46601066099226        8.81653708525946        7.89168693477866
C           14.55250854220213        7.32205633540024        8.98557400813945
H           14.76111669940213        6.73006276757646        8.10183922059766
C           15.02605269245609        6.88555858644422       10.22513605252701
H           15.59298428144858        5.96327739273710       10.27941671370894
C           14.78843157387513        7.60467515274401       11.38519672619532
H           15.16393535286838        7.25156078923599       12.33647007697433
C           14.05806153793223        8.78250526273516       11.26948196953738
C           12.23123936204962       11.26639649729672        9.31129694719622
H           11.83562500932891       12.09267650095866        9.91762833833806
C           13.22041357368759       11.83264413340189        8.29554077768794
H           14.04506098599993       12.31865717153816        8.81599003963002
H           12.71605855611857       12.56843111749887        7.67003374439847
H           13.62398581156553       11.04973244871641        7.65496032043824
C           11.06320272968416       10.52838995585397        8.66151937187300
H           11.41127993161120        9.71535032074600        8.02591893834106
H           10.48867038902908       11.22485923881957        8.05172658476945
H           10.41303696265461       10.11578959764586        9.43238520106106
C           13.87889425696730        9.74857623703795       13.62160913935179
H           13.38433580644976       10.66589445209809       13.96915836973605
C           15.37187643006036        9.85144274470969       13.92349428316297
H           15.79615397425321       10.70528108094159       13.39616932189653
H           15.90245058959274        8.95143104755669       13.61586048557750
H           15.51612330588032        9.99154039252061       14.99427641527830
C           13.21446013015912        8.54713478342191       14.28945617916761
H           12.16246293872570        8.50446487530857       14.00896426309578
H           13.28662809192295        8.64852714300159       15.37182432976719
H           13.69283603041439        7.61402759044903       13.99510606328901
N           12.91354534429185       10.40628261506561       10.26792123933490
N           13.64581068034309        9.73130359502743       12.18430962536538
F            9.50641138954769       19.73957844598703       16.23583343409396
Au          12.22976274708964       12.37936726621119       12.45002841442533
