37
 energy: -76.551570217732 gnorm: 0.000198887412 xtb: 6.5.1 (579679a)
Au           3.23009450670607        6.08041844339827        8.53794256251532
S            5.66267635033842        4.04560121627119        8.20653890385747
S            4.07664196953232        5.85750331701930        6.38912759720249
S            5.05017346450972        5.45438505389451       11.15213539149808
S            2.21483944749266        6.34160775554417       10.60489547160513
O            6.89123663027259        3.23813006429522       10.29164086520006
O            8.60980828222830        1.84259898637087       10.49772674389106
O            5.82054684912191        2.58696276088282       14.21771683933430
O            7.80921819397435        2.32145496830329       13.25210946985131
N            6.08099689531873        4.25317856130945        5.74179549844784
H            6.00085485524810        4.55361640426375        4.78076174233800
N            3.29294448556245        5.65048553926862       12.92136202366178
H            2.40241267907357        5.81416489264500       13.36954450979072
H            8.51192492149111        2.04336855301465       11.45334571859114
H            7.72598657236571        1.43889656460052       13.65527376276831
C            5.26400804908984        4.73015108693874        6.69006640172909
C            7.03061594589323        3.33685299732544        6.16352884294480
C            6.94800386730997        3.10064071947082        7.49073628566101
C            7.78109093404997        2.17665660597511        8.31900427179283
H            8.83055951170994        2.20381760548231        8.01296684850874
H            7.44186014180591        1.14017209849145        8.20521492598763
C            7.70134195417309        2.49209652162654        9.80058222262709
C            7.96020782050092        2.75716883805877        5.14962655542019
H            7.40371397620960        2.16209972155973        4.42365384232979
H            8.69911256082591        2.11951823837768        5.63088706811875
H            8.47652081718366        3.55316802255198        4.61137324188553
C            3.44680251163895        5.83038241532654       11.60380805186599
C            4.40290932300506        5.19332500221374       13.61172318163640
C            5.46598592481256        5.03232493453446       12.79303036122121
C            6.81984448096644        4.48467741834715       13.11368311896923
H            7.28048815942208        5.04563721299176       13.93428822925869
H            7.47916974859850        4.54413571627639       12.24794053320245
C            6.72872898255102        3.04246355447901       13.58682179852798
C            4.28678324869124        4.93992706535499       15.07654933556721
H            3.70341846013889        5.72630659228996       15.55556312965113
H            5.27518727496831        4.89528008923002       15.52921177611163
H            3.79099020318260        3.98352446200173       15.24932287644882
