69
 energy: -101.060223411121 gnorm: 0.000179807795 xtb: 6.5.1 (579679a)
Au           5.54297789040722        0.80123432692693        2.55473212679690
P            3.42048779737424        0.82332454180754        3.51872886603794
C            2.35126786562957        2.14167098425322        2.87764064905895
C            2.49792818544328        2.51996449960959        1.53994234769539
C            1.69223021672872        3.50618456079993        0.99496100794047
C            0.73323552405378        4.13158643806698        1.78098037441380
C            0.58410322586546        3.76883864935828        3.11256097677362
C            1.38658658078469        2.78035958123150        3.66130573027971
C            2.49550344554265       -0.71310276279306        3.24257642138765
C            1.10343247063083       -0.74463370283765        3.12280900687757
C            0.44659437406809       -1.94904677939057        2.92328938516298
C            1.16676019312715       -3.13294900348544        2.84025575817934
C            2.55063239703330       -3.11217113642721        2.95393746812240
C            3.21103562048493       -1.91042937786676        3.15084704791677
C            3.43895364017272        1.06017512619156        5.31782470323681
C            2.53823458271092        0.42556195185656        6.17682819815060
C            2.59497433764623        0.65694845019483        7.54275171870081
C            3.54672464037183        1.52074552307632        8.06686765991296
C            4.44957679487117        2.15310532736330        7.22188419940904
C            4.39899260352605        1.92192011531521        5.85710437999008
P            7.65945240992148        0.74817741485448        1.57835180451828
C            8.18214340475632       -0.93004018359302        1.12716388775264
C            7.81219631491244       -1.98113829988712        1.97174766227508
C            8.19533436855464       -3.28135578298007        1.68702085446588
C            8.94722526514891       -3.54987115230202        0.55056749361043
C            9.31311012668599       -2.51490981706156       -0.29897471623203
C            8.93479852291234       -1.21135624926186       -0.01569061035026
C            7.77992116813771        1.71858275860747        0.05000315776502
C            8.95865112286573        2.35332459658949       -0.35092966575391
C            8.99720233414394        3.07024064921372       -1.53690650299457
C            7.86514485848967        3.16344469770301       -2.33491444372605
C            6.68751947317047        2.54026026195841       -1.94334513097124
C            6.64397220514158        1.82524288806374       -0.75767575628555
C            8.97844838457862        1.38147435029270        2.65159906599741
C           10.27911927396984        0.87097409219192        2.63001512861180
C           11.25223543419543        1.40397468608671        3.46133579752251
C           10.94172771445078        2.44848643925204        4.32127732087881
C            9.65105853851233        2.96011152881424        4.35331842406113
C            8.67485048518054        2.42852045067267        3.52657570164886
H            3.25085020208339        2.03442447889892        0.92629427520657
H            1.81541484049536        3.78947617258006       -0.04392702417528
H            0.10485758780795        4.90526176251872        1.35578702880798
H           -0.16066370270696        4.25808578098653        3.72945967775570
H            1.26838220404039        2.50599768044420        4.70346291598292
H            0.53472916538661        0.17659392998864        3.18045363204752
H           -0.63319880300384       -1.96151538257926        2.83088202875977
H            0.65010747668467       -4.07228271470558        2.68227574205067
H            3.11744837995952       -4.03343697815681        2.88507033941309
H            4.29362214149112       -1.89430889626861        3.23447276980879
H            1.79456056015828       -0.25351016072882        5.77549006272170
H            1.89183236656584        0.15865426052027        8.20001869510446
H            3.58845396477989        1.69862293301604        9.13497829255101
H            5.19725203691539        2.82503113725100        7.62715797612239
H            5.10864145806115        2.41226637356851        5.19748177347241
H            7.21990233717133       -1.77224098322244        2.85759619596611
H            7.90369610265391       -4.08668776899212        2.35119453881018
H            9.24432112977783       -4.56739498881234        0.32562884254385
H            9.89623920292972       -2.72199901962450       -1.18878164682962
H            9.22079209489867       -0.40896520207578       -0.68624310970650
H            9.84524509014375        2.28972856141695        0.26979200086715
H            9.91649727096030        3.55903867954628       -1.83783201010764
H            7.89871608482929        3.72562587395991       -3.26069571997113
H            5.79985184916659        2.61413616466648       -2.56085231763025
H            5.72140220078125        1.34253823718663       -0.44943060544826
H           10.52741581084829        0.05160922944556        1.96494559379051
H           12.25758968768833        0.99987076893698        3.43703752899157
H           11.70468168704649        2.86193444171397        4.97030105592483
H            9.40312607354811        3.77275847700999        5.02625215887452
H            7.66458970688020        2.82545650862142        3.55576180964455
