14
 energy: -31.546376804079 gnorm: 0.000232000698 xtb: 6.5.1 (579679a)
Au           0.40686930968317        6.63785311436074       -0.17910748585701
Br           2.43299435355037        7.79389157755960       -0.08062439522238
C           -1.23418449092869        5.64980888261899       -0.23842614397415
C           -3.39884780334565        4.26551297118199       -0.29808340726402
C           -4.42018384464564        5.07328555932017       -1.10481976735645
C           -6.62927122165004        5.03949463127211       -1.87643918740209
N           -2.17780289674954        4.96035913158466       -0.21858086268442
O           -4.22507687765533        6.13530239091843       -1.61580770536332
O           -5.57027855278476        4.40494894722899       -1.15060114683275
H           -3.25008625041177        3.29709391740333       -0.78763483254908
H           -3.79969211234177        4.09011802208412        0.70591377184606
H           -7.49119725681681        4.37666705790591       -1.81732870482699
H           -6.86054577924434        6.00810418884771       -1.42609901353684
H           -6.33079657666022        5.18605960771469       -2.91756111897613
