80
 energy: -105.451815156582 gnorm: 0.000121597403 xtb: 6.5.1 (579679a)
Au           5.30149475469007        2.89588799047197        2.79858838921874
C            6.50789863050971        5.49888923989434        5.08921910144675
H            7.47573834393705        4.98384766795876        5.14206851453085
C            6.38809503683117        0.18924939811986        4.77962354071157
C            5.33938596666575        3.26274303130758        4.73370980613099
C            5.39850626516487        4.52692445264622        5.55173250642108
N            5.27012601657355        2.23142995321879        5.52817105462331
C            5.28674335187014        2.52565745621306        6.98321626792302
C            6.27264748643391        5.98694957746397        3.65674982091069
H            7.07956976723157        6.66859098096863        3.37025047463979
H            6.29136930105842        5.14368132424443        2.96208224414134
C            3.90418811852704        2.29859195439957        7.59724812779672
H            3.62865992731480        1.24761063203618        7.52853012402464
H            3.14843669250861        2.90255113664084        7.09969820934951
H            3.93068917900116        2.57955779961487        8.64990774117185
C            4.92422238041605        6.70433357246479        3.56813731233379
H            4.74736891345907        7.02342080922468        2.53415661440966
C            5.19660984076329        0.88614779596927        5.02484017562791
C            6.30371447208363       -1.13256000548298        4.34808995709133
H            7.21089255541700       -1.69190128252927        4.15223889259614
C            5.67807650699195        4.00759314383371        6.98423677336299
H            5.13080173968764        4.54989597458398        7.75429461734086
H            6.74468946995795        4.10281150213171        7.20447947616786
C            6.52959402177542        6.72582938585095        6.01490648166414
H            7.33877112837055        7.39516708443612        5.70644315496234
H            6.72547187472545        6.42715667920691        7.04881391788835
C            4.04870789855707        5.28451076644111        5.44362491375349
H            3.23514745478918        4.61345218078224        5.74659883967731
C            3.94895772969183        0.31999997311670        4.73199922618180
C            2.66115470185804        1.11739626753923        4.74425511061115
H            2.86332656792250        2.11848354149978        5.14029752990991
C            4.94602567599049        7.93057859385434        4.48846030332291
H            5.74025657005203        8.61657289642814        4.17827102764955
H            3.99377966391968        8.46624137677211        4.42459927716565
C            5.07519033432880       -1.73808358785869        4.14413737321998
H            5.02646696289877       -2.76978927791558        3.81605705435569
C            5.18742502757400        7.46372209842669        5.92865048732243
H            5.20773671149566        8.33257265115395        6.59831953596540
C            7.74913999669771        0.85142416154438        4.85062135286287
H            7.63920775345695        1.85486900560820        5.27796929011460
C            3.80543094858463        5.75343092536041        4.00398290317567
H            3.76508557931170        4.89531133138480        3.32824016884910
H            2.83881855171199        6.26415189697249        3.94993623413617
C            3.91120940734142       -1.00600468905750        4.30496900634543
H            2.95789409002581       -1.46774898097341        4.07634027804348
O            5.24230620561653        2.54928056625476        0.85766205255793
C            6.29909007790750        1.65563956955331        7.72563342209493
H            6.09724034843072        0.59930555365914        7.55178133463019
H            6.22093232712573        1.85313809413195        8.79450760444540
H            7.31517557896486        1.88418995882820        7.41216123667901
C            4.98806670219488        0.21556892848423       -1.88575628913652
H            4.91583818614588        0.23380994656563       -2.96878768978605
C            4.99401849190683       -1.00436190402239       -1.21721373752442
H            4.92694191531523       -1.93364923217078       -1.77154597032640
C            4.05094885830695        6.52491427997171        6.34932077071494
H            4.16084235669402        6.24811465201888        7.40135166329944
H            3.09005198874249        7.03951565329191        6.24839450306708
C            8.31091450868340        1.01224772786979        3.43134956063860
H            9.27735863227299        1.51502935710836        3.46871212420168
H            7.62941989366798        1.61215875237023        2.82819699727723
H            8.43553823224427        0.04294761826992        2.94903428601507
C            8.73418368568077        0.05409709767168        5.71540504422458
H            8.29635712911713       -0.18047672058985        6.68530900385299
H            9.64032713636418        0.63919103546491        5.87367434015511
H            9.01107079721545       -0.88149236902897        5.22917626576546
C            5.07238068323736        1.40630791955740       -1.18637795497057
H            5.06689115308966        2.35814652273811       -1.70435984810985
C            5.17263582788122        0.16696841677869        0.87725754967796
H            5.24726998308923        0.15770876244917        1.95982777505355
C            1.58143923198553        0.45476416465199        5.60913576972866
H            1.96638703752067        0.22804905201418        6.60319723378141
H            1.23549551960578       -0.47434912326413        5.15587834355175
H            0.72859017644215        1.12624419628798        5.71024919840631
C            2.14972924165716        1.28645242097202        3.30704579976672
H            2.90521776037862        1.78523612628753        2.70044285923902
H            1.24486678799332        1.89425527123735        3.30461620209213
H            1.92705194985717        0.32054998182504        2.85424862125669
C            5.08741738707031       -1.01905108256263        0.16946383742981
H            5.09371613282431       -1.96485320262802        0.70341609438670
C            5.16586470659479        1.40615362198655        0.21692878671428
