21
 energy: -37.408186144248 gnorm: 0.000260704258 xtb: 6.5.1 (579679a)
Au           3.55961362473032       12.33933110770182        4.09359262328039
Br           3.40604769205555       11.85645610075064        6.40141529751911
N            4.62970126336837       13.47421837821908        1.47215341177578
N            2.86118775509471       12.35413333253758        1.12391940241618
C            3.69052762460471       12.75130865581553        2.10112537921430
C            4.39629682054830       13.53605096916167        0.11881966055986
H            5.03852705384103       14.07649403413885       -0.55487751695766
C            3.27197080647398       12.81488666785449       -0.10440656342461
H            2.73773089402750       12.59604640102901       -1.01276752182289
C            1.70949922861238       11.50271295395896        1.35766153197423
C            1.89355246981769       10.20380688692151        0.71895035213061
C            2.06687523130797        9.14262503095966        0.18901176470696
H            2.20790650057567        8.20161514367268       -0.27207152592102
C            5.72425924805798       14.12835711272436        2.16520411704695
C            5.64775725984335       15.57577511626813        2.00046517433533
C            5.56810899946529       16.76288511159842        1.85440559285398
H            1.62302193171273       11.38716042982636        2.44295280610213
H            0.80685015375262       11.99271439174110        0.97510235036124
H            5.50810249907794       17.81172969068428        1.73493941184572
H            6.67919181538988       13.75079008582201        1.78143440129313
H            5.63047112764247       13.85530239861501        3.22136985071018
