37
 energy: -73.171906139549 gnorm: 0.000192416507 xtb: 6.5.1 (579679a)
C           19.43309982781084        0.27841623247175        1.23705205140077
C           19.91168830522075       -0.59338244078812        0.32582527052538
C           17.92832445274548       -1.46773142371922        1.59741278955320
C           17.68869574526036        0.60280973135080        2.96963286166405
H           18.25444301661824        1.54678779739874        2.98930875989365
C           16.23806067594458        0.90444525957207        2.59157692087168
H           16.20241895773685        1.38632258393084        1.61446922598827
H           15.79666787103530        1.57120276478591        3.33289027194564
H           15.65946828761982       -0.02040557769033        2.55181136848250
C           17.80465810649997       -0.07114975510053        4.33738659595606
H           17.26599658989274       -1.02064749593685        4.33556885739391
H           17.38198456844793        0.57867508724664        5.10417950511084
H           18.85294261599270       -0.25935865080471        4.56961095114740
N           18.32975228052720       -0.21318112081011        1.93991413464095
S           20.07822093138254        1.85058541660998        1.54539780118814
S           21.25854725865102       -0.31132801939901       -0.70814707223182
S           18.97492041988846       -2.06910392113625        0.33184339713538
S           16.67158239175015       -2.33309256460410        2.23331446501629
Au          21.82358152905208        1.84291971747473       -0.00015613200021
C           24.21419930610250        3.40787497202508       -1.23705985786261
C           23.73558245727086        4.27967298390663       -0.32585796369488
C           25.71902388665653        5.15398234844982       -1.59735870101363
C           25.95866372554246        3.08342959101967       -2.96957306585733
H           25.39298659332772        2.13940972654092       -2.98916946369946
C           27.40934228483421        2.78189145669149       -2.59161197561839
H           27.44509039482733        2.30007560023924       -1.61447658351388
H           27.85071132851447        2.11511743768113       -3.33292678907343
H           27.98788488316293        3.70677639574764       -2.55194927289290
C           25.84254955442874        3.75731708106985       -4.33734934658306
H           26.38111275501167        4.70686910089747       -4.33559001983176
H           26.26525098147420        3.10751211293672       -5.10414383751663
H           24.79422944055985        3.94540577330962       -4.56951639447285
N           25.31760530517442        3.89942837902781       -1.93985745280201
S           23.56900872853293        1.83574510852100       -1.54538782815231
S           22.38866763697202        3.99757882380474        0.70803614126946
S           24.67237655080848        5.75537823157241       -0.33183906313157
S           26.97576035472182        6.01935125570593       -2.23326054923453
