67
 energy: -90.797686856570 gnorm: 0.000149496404 xtb: 6.5.1 (579679a)
Au          11.12688933536174       11.31471041698512       14.52611561241987
Cl          13.43759985389891       11.27132320697628       15.18460803610015
N            8.03922270165088       12.18259816959518       14.45696075506312
N            8.42251708254040       10.54093312566395       12.97679107176929
C            8.11204274186954       13.20515832618331       15.42431593675905
C            8.21724054803312       12.86259591144535       16.77695346387782
C            8.32071165639301       13.88246672580921       17.71973859729009
H            8.40618258237073       13.64086613381973       18.77422870714186
C            8.32340866172036       15.21132290173048       17.32573235899213
H            8.40785036185965       15.99733458279222       18.06914404121170
C            8.23722546238116       15.53973956226096       15.97987222644603
H            8.26947122099109       16.58430480193401       15.68879963125595
C            8.12804787605423       14.54484777349684       15.01380539411684
C            8.13479437625238       14.87799012593901       13.53532657272411
H            7.68931069651046       14.03861791997263       12.98668330160971
C            9.59012778715196       15.02317453226109       13.06841356957114
H           10.08274275775412       15.84269179987927       13.59382640730890
H            9.62632752604462       15.21940602578514       11.99585063751867
H           10.13391828804100       14.10092399155648       13.27494315389023
C            7.32205378792329       16.13261097298669       13.19826469599456
H            6.31987961944467       16.05890550311417       13.62313125772186
H            7.23302827170753       16.23231673315895       12.11522490697333
H            7.79857827895224       17.03532855198085       13.58342232816875
C            8.22801589373657       11.41168015787544       17.21039446781036
H            8.06964020911427       10.78427341119906       16.32423697133269
C            7.08882719939818       11.12412651834201       18.19700782788088
H            7.22280651590888       11.67693451947433       19.12820433913698
H            7.05913142055297       10.05875132814595       18.43035418491246
H            6.13216093185215       11.41110424262017       17.75801102290441
C            9.58649249351376       11.03789831709445       17.81245224999422
H           10.37009592865125       11.21384045549270       17.07541489398273
H            9.59778664696547        9.98193695516339       18.08594848536521
H            9.80117513053345       11.63357991996200       18.70081692463534
C            6.85738141144256       11.91113402171641       13.77515662037524
H            5.93522087402016       12.42110675427845       14.01020775358355
C            7.08801340408653       10.92327811803804       12.88440858901885
H            6.39936932360156       10.42826802919847       12.21622114491629
C            8.96510323811340        9.55502341065355       12.12824013958357
C            9.20886847432528        9.85996678420241       10.78207089418334
C            9.77844923808618        8.88648229167805        9.96816001694174
H            9.99402725472857        9.10034003354957        8.92677531990598
C           10.09442457533561        7.63479770778712       10.47852686701637
H           10.53804828023652        6.88443773321078        9.83217614089885
C            9.86155515148911        7.34840880340987       11.81437747775717
H           10.12918234561929        6.37105188310412       12.20269332166445
C            9.29676736352362        8.30272358775055       12.65709543944014
C            9.05409974194359        7.98892705792048       14.11855135926525
H            8.55088005675632        8.84863468644436       14.57857715716841
C           10.38107733309927        7.77428491133210       14.85375128446456
H           10.93000711358852        6.92824887403942       14.43779011184699
H           10.19706589472848        7.58755908917004       15.91263405954476
H           10.99556830105207        8.66979481113015       14.76114705680643
C            8.13435698597681        6.77065820670050       14.27293821109183
H            7.20142353505832        6.93508342320570       13.73180591210287
H            7.90197871020020        6.61140850616748       15.32695992326319
H            8.60617182879482        5.86691175764539       13.88398192610679
C            8.94936418226231       11.26392534096836       10.27306084224750
H            8.16547079399297       11.71918008165429       10.89147674912425
C           10.22713048927155       12.09664503092161       10.44950700672402
H           10.52059196578437       12.09803173794650       11.49961961450533
H           10.05561667306014       13.12605384891312       10.13147601224735
H           11.04375360864578       11.67669484465672        9.86052702549639
C            8.46829726455845       11.30058741227510        8.81872495496572
H            9.26212594498075       11.01739004052336        8.12597799511242
H            8.14305006916142       12.31105769091683        8.56565679036867
H            7.62603889419973       10.62096316380419        8.68120395414904
B            9.13331583315848       11.33564670438682       13.97972829623779
