40
 energy: -70.903007129045 gnorm: 0.000250223515 xtb: 6.5.1 (579679a)
Au           3.31076151972879       12.35572132347130        2.14738390748101
P            4.74425754918227       10.74124686556579        2.85249715835176
Cl           1.89055327394339       13.92043860304457        1.44142187107686
Cl           4.15548966273903        6.99929869740436        3.90436270837275
Cl           1.04460027864621        8.57831219893110        0.24726621543017
O            8.55596380396426       11.06699333878561        3.54205224843014
N            4.60805761756275       10.32115242522533        4.51106824242701
N            6.41041967366797       11.12798960508159        2.86000787693491
N            4.65315512399738        9.34850595080601        1.85689716525835
C            7.40031267880122       10.77127998627780        3.76635816928445
C            6.97296179631920       10.02285127047763        4.95752814234618
C            7.99065273868113        9.52847190503242        5.78105770345234
H            9.01829582259221        9.72059368450611        5.49245922495117
C            7.69920588529904        8.81664719288891        6.92731180867476
H            8.49496115014110        8.43660248884961        7.55625909828857
C            6.36820809364986        8.59380540781195        7.26507448885792
H            6.12166104126274        8.03296926609126        8.15971729131197
C            5.34550319334928        9.07925411009044        6.46954445263180
H            4.32252312308680        8.87916171286185        6.75844493221240
C            5.63088535415140        9.80027970329537        5.30433932815273
C            3.23238390126271       10.22619536023316        5.00940468720573
H            2.58629271573039       10.79288138651772        4.33848935273294
H            3.17138686172135       10.66119652052577        6.00746030544379
H            2.89439971775085        9.18804140345203        5.03067020993689
C            6.93007034616910       11.83558712768197        1.68101120503532
H            7.44612755745023       12.73928864941304        2.00665399749929
H            6.10080576913213       12.09705715308429        1.02439616057060
H            7.63400762447865       11.19330235713927        1.14994261392544
C            5.60862190691634        8.24261311773029        1.94418246343069
H            6.36335117824216        8.51325292049755        2.68631089535082
H            6.10435098667806        8.11738087767798        0.97302145350883
C            4.97561363633262        6.91224175448826        2.32960907428039
H            5.76059966011330        6.15798555376830        2.40202599213709
H            4.24730990694130        6.58942666148236        1.58560539248299
C            3.58600641367817        9.23200400956750        0.85908647882131
H            3.87618869826214        8.48626353645402        0.11473419281422
H            3.46472816661685       10.19330572171022        0.35105422586447
C            2.26107238615066        8.84588292519675        1.50751237869015
H            1.91627264769170        9.65260827591677        2.15700777519580
H            2.35748053792857        7.93640895093807        2.10056911113686
