34
 energy: -57.041354485903 gnorm: 0.000228959457 xtb: 6.5.1 (579679a)
Au           1.61204426748401       -0.21133806145059        2.75518846843507
S            1.69284191818028       -0.79895216521868        0.51343858407975
Cl           1.66958439480325        0.24723401077502        4.97554889617989
O            5.89878337580090       -1.17315446205282        1.08278825863757
N            3.79141205983593       -1.81828108168202        1.72125347317586
N            3.62793376288996       -2.17582314229893       -0.59794549153245
C            5.38355144624799       -1.16515278104398        3.40177550931598
C            4.63883541267411       -1.74755634425604        4.42939569915502
C            4.93886234982975       -1.45918737605770        5.75108628975419
C            5.98088308314043       -0.59440480785256        6.05809697127888
C            6.73945618406188       -0.02834428036178        5.04110971290903
C            6.44702378437614       -0.31533586936345        3.71897558924047
C            5.09954262023073       -1.38087725818544        1.96413540651258
C            3.13941324864901       -1.64882580288411        0.51368025198399
C            2.90572794560472       -1.97087221255490       -1.85463944325278
C            1.74559307335482       -2.95395383936905       -1.98822796586103
C            4.70282690354973       -3.17402052429286       -0.61955629546568
C            5.89619469496110       -2.71278626347406       -1.45024560919089
H            3.15437247327417       -1.56843615048978        2.47494541454935
H            3.83660966886684       -2.44111974544618        4.20459689700568
H            4.35174597643868       -1.90714398751708        6.54412551836146
H            6.20437331254790       -0.36369705865950        7.09341091067005
H            7.55756780778474        0.64106743367647        5.28109206260765
H            7.02467937666956        0.12464985033211        2.91372668037301
H            2.53087974604009       -0.94280015283346       -1.85920783995313
H            3.60955120950471       -2.09480066679655       -2.68071495446081
H            1.23439901899582       -2.78050466795802       -2.93422851922391
H            1.03737998042733       -2.80884719112255       -1.17278772366625
H            2.10596321735132       -3.98199209212973       -1.96533167568714
H            5.00406262759306       -3.36934746241463        0.40964447990059
H            4.28690060118367       -4.09856462100800       -1.03809381438373
H            6.72671710063706       -3.39695962424088       -1.28062193792400
H            6.19893798945324       -1.71156555172423       -1.15229060847997
H            5.66004936743984       -2.71050604978631       -2.51412319501216
