47
 energy: -67.066590684068 gnorm: 0.000212379980 xtb: 6.5.1 (579679a)
C            8.85097594579227        8.25218773376209        4.01266628196426
C           10.58498613158865        6.84759966026739        4.23436990275226
C           11.58365116695427        5.89160842192592        4.08401666889434
H           11.70186060896148        5.32177415864356        3.17189729551537
C           12.43629263812833        5.68658165769915        5.15673159031285
H           13.22535653492699        4.94801741132542        5.07358861856667
C           12.30233196714774        6.40927401634945        6.34450601510099
H           12.98997692253090        6.21756436262573        7.16022868505022
C           11.31082109669662        7.36390647665317        6.50361458208047
H           11.22150097599033        7.91354354635414        7.43128122400214
C           10.44998746026893        7.57667982470271        5.43238116356780
C            9.27890986815139        6.87412052796584        2.04424144179680
H            8.41492135339787        7.48540959805325        1.74974949387973
C            8.87036531445770        5.40330274267009        2.02157730338653
H            9.70461741980981        4.75511574930653        2.28626399574556
H            8.52700204414644        5.13807021121540        1.02220513680605
H            8.05877860629949        5.23565429578173        2.72889310131218
C           10.44492795206491        7.18544048466798        1.10916374399972
H           10.71677761167526        8.23695372014960        1.19611283925696
H           10.14859270101101        6.98215252780138        0.08064294922077
H           11.31732755897738        6.57800262136505        1.34606935682116
C            8.81448195353518        9.38775539830353        6.17275620510352
H            7.97929742682674        9.84541318511149        5.62514639278518
C            9.83842094442899       10.47033192381911        6.50508600179815
H           10.67232198467516       10.06629100495204        7.07740479457471
H            9.36008585644382       11.25304866299655        7.09290866077254
H           10.22486684994519       10.90733125667452        5.58485012130056
C            8.26334055185686        8.68526939891106        7.41106025006617
H            7.56413219694600        7.90530893557875        7.11131665849717
H            7.73826942089113        9.40847871343986        8.03416955077651
H            9.06067130371993        8.23317037840748        7.99931802392432
C            5.57197479847382       10.01899399210805        2.57708861826882
C            4.55125165379088       10.52660446715943        2.16115514360090
C            3.35445769584621       11.11998430058935        1.67421098131921
C            3.12098256395057       12.49113437566244        1.83525607697286
H            3.86452972679709       13.10309692276663        2.33410849947379
C            1.95158539992875       13.06355255608888        1.36265010565012
H            1.78026129884196       14.12715129442568        1.49263267415994
C            0.99671942836857       12.28189053635336        0.72362248202443
H            0.08172404890587       12.73264938111187        0.35520153899599
C            1.21918352646881       10.92008854395276        0.55884855467007
H            0.47519826844910       10.30735792939345        0.06029973577618
C            2.38651205533747       10.34106426225794        1.02832736288886
H            2.55788904060827        9.27796263531634        0.89907059411247
N            9.58067228113524        7.30237976775912        3.40285479475604
N            9.37380504212211        8.42012522193635        5.23940472869662
Au           7.20960280271761        9.16430520563078        3.27545005899010
