37
 energy: -59.143649913579 gnorm: 0.000088573028 xtb: 6.5.1 (579679a)
Au          -0.99222373966650        4.82765835557901        1.69993956642889
Cl          -0.99144462530353        7.07511537479935        1.69841180106620
C            3.30522140599438        1.35299087690957        1.17918232054763
H            3.47734867495585        0.76234209670379        2.07291074313944
C            4.12075292966277        1.18263900607778        0.06843282985363
H            4.92662712405727        0.45792968927752        0.09910153404861
C            3.90367768439380        1.93533888856275       -1.07663381285668
H            4.54068823898096        1.80061987858381       -1.94334033321796
C            2.86968452285362        2.86174560095893       -1.11059599076913
H            2.69753738509820        3.45228170416853       -2.00319325578595
C            2.05581259586652        3.03409729398896       -0.00187495990731
H            1.24718124205634        3.75658055968508       -0.02620434683309
C            2.27147781015419        2.28242265361801        1.14970369962848
C            1.36321709760209        2.46457783422458        2.34413319640350
H            1.72795055584277        1.90368565630965        3.20925179534287
H            1.27987548627851        3.52230369895998        2.60782450238341
N            0.02378580032714        2.00624567618662        2.01427915521334
C           -0.99288711369942        2.82327380185653        1.70167936501849
C           -0.34337820122408        0.68878636167791        1.89477460519346
H            0.33802459395947       -0.12001975269070        2.09436356551331
C           -5.29203968097266        1.35320804601970        2.22266552836310
H           -5.46398742352607        0.76303297901303        1.32859039270593
C           -6.10823914322368        1.18277234752014        3.33291127903738
H           -6.91445108103076        0.45847109939433        3.30150464857290
C           -5.89139775244258        1.93487260220010        4.47841508140216
H           -6.52893965038895        1.80010504547740        5.34472314197825
C           -4.85695431310141        2.86074052015043        4.51332657832355
H           -4.68499058719725        3.45080211376595        5.40627385809802
C           -4.04240429166964        3.03317557200571        3.40511374371927
H           -3.23342354889045        3.75523756324250        3.43019928459586
C           -4.25785395705851        2.28211627344300        2.25308710098652
C           -3.34896168006974        2.46441752107175        1.05916700116546
H           -3.71322860597223        1.90358802984564        0.19380676668295
H           -3.26553600384755        3.52216908609930        0.79558589217501
N           -2.00966218248128        2.00616118718860        1.38963972088278
C           -1.64267542322006        0.68873512122071        1.51008553849743
H           -2.32418414309668       -0.12012036309640        1.31105846240338
