33
 energy: -41.616290760193 gnorm: 0.000494556044 xtb: 6.5.1 (579679a)
Au           2.74730136756482        5.01845593937433        5.78341713009976
P            2.26819468546493        2.76215417693263        5.91631540293647
Cl           3.39657306033602        7.19539092235041        5.63507490008225
C            5.53284256020250        3.12168078687845        6.73309462108601
H            6.51478388077869        3.51552103264406        6.46859926275280
H            5.55705165637801        2.69981273239527        7.73612608732050
H            4.79534736576767        3.92088556408496        6.69142644934254
C           -0.32492843893227        3.27057329612434        6.76365196609260
H           -0.07013591037718        4.33037907217067        6.78118428357203
H           -1.13517517052992        3.09777470590576        7.47418658963748
H           -0.68173806146600        3.01773992665439        5.76463776694578
N            5.13838289331305        2.06175819393932        5.77880345161030
C            0.89607960708369        2.41754812904274        7.13651219086316
C            1.37297371362418        2.81459262128443        8.54004251466600
H            2.23482010600262        2.21857893873920        8.84110123412923
H            0.57472849649564        2.65670630512967        9.26723102838864
H            1.65655042587376        3.86750029304639        8.56123931557397
C            5.13303339057834        2.62192303955052        4.40966702381018
H            4.42665413891317        3.44929368223931        4.37446749448491
H            4.82223431074851        1.84448939869413        3.71388018294482
H            6.12921217047243        2.98059068154106        4.14817592021375
B            3.67277776245146        1.39778888178784        6.17433008955273
C            6.15053677911380        0.98093599762540        5.84004477153642
H            7.13811579637791        1.38162141544040        5.60763676760901
H            5.88467644968189        0.21021534651642        5.11914010025081
H            6.14860232262834        0.55750492684192        6.84258950742532
C            0.49154240459627        0.93674207032564        7.12936984398252
H            0.17112050093920        0.63141515514236        6.13275980646425
H           -0.33595647200565        0.77422664176728        7.82258199643861
H            1.32418575849588        0.30415093398776        7.43546331342216
H            1.62463900499470        2.34086390672084        4.76456035734547
H            3.52880896877609        0.46737367238692        5.43187943387780
H            3.77306447571705        1.07501161270534        7.32540919558768
