49
 energy: -76.795051466648 gnorm: 0.000106258667 xtb: 6.5.1 (579679a)
Au           2.68204758978325        3.64684544060700        0.59701684376235
P            0.80355591737426        3.30707144986607        1.87890388417110
O            4.10873899682542        4.26373213048988       -0.57864345304786
C            3.50015054916301        2.26295244603888        1.91593640189977
C            3.91907190087289        1.46698383590644        2.69854063974526
C            5.13334185690082        3.72194892573890       -1.20847169695695
C            6.15380745904081        4.55779000582428       -1.68921345224267
C            7.22956987199359        4.02132264804049       -2.37489147824526
C            7.31927397714304        2.65092545460192       -2.58980432289654
C            6.31591238163321        1.81619480811576       -2.11160799587103
C            5.23156936306379        2.34205827693690       -1.43141052245413
C           -0.72168042507044        4.04833000557420        1.20347187064750
C           -0.61035404592399        5.14531177358324        0.34683256476755
C           -1.74028154534227        5.74199623069039       -0.19056792885508
C           -2.99928832701494        5.24441406779222        0.11569944820960
C           -3.12296399997274        4.15061688479211        0.96226521705105
C           -1.99402984258676        3.55628120289396        1.50379548112068
C            0.89951105978950        3.97631743692141        3.56767681043269
C            0.21756584208252        5.13840211731881        3.93545438215335
C            0.35586463566657        5.66000128187966        5.21278515040916
C            1.17956840823610        5.03321752293713        6.13748155274897
C            1.86963977050328        3.88286208635912        5.77863770404049
C            1.73601115416347        3.35879818256193        4.50328585218944
C            0.36482425658041        1.55868445667393        2.11040924593546
C            0.67707454966156        0.65639314190748        1.09123579406495
C            0.34749028913006       -0.68411637451593        1.20825127863930
C           -0.29913176265231       -1.14309678915435        2.34790539457290
C           -0.61365063716882       -0.25639932660733        3.36846664474358
C           -0.28588806942016        1.08596362378848        3.25284115755570
H            6.07482126748855        5.62484960295571       -1.51889203812313
H            8.01069302547145        4.67777967089923       -2.74433879333674
H            8.16612645234837        2.23598664596521       -3.12423666836512
H            6.38108220986483        0.74503146209671       -2.27261139316801
H            4.44697431999128        1.69612941219602       -1.05027071952107
H            0.37343759572164        5.52994923453065        0.09926251026570
H           -1.63698529830107        6.59359667081358       -0.85329988416533
H           -3.88394317453486        5.70583242081606       -0.30797440042838
H           -4.10437265565035        3.75676940082760        1.20152082575917
H           -2.10176254372648        2.70128198153022        2.16199340497760
H           -0.42832157533448        5.63685197898746        3.22125050936590
H           -0.18238925668138        6.56096248582233        5.48527214472001
H            1.28662497911346        5.44335056219705        7.13525505998330
H            2.51895927551349        3.39233697715315        6.49481152318223
H            2.29136068809392        2.46888228348794        4.22451218432639
H            1.19177481293008        1.01002361007353        0.20448954637274
H            0.60089252380804       -1.37318767177973        0.41073033311590
H           -0.55346532052445       -2.19256551013611        2.44283811072607
H           -1.11506715230438       -0.61108191194339        4.26195581103396
H           -0.52656134764700        1.76811774559892        4.06044946503960
