51
 energy: -75.659868845877 gnorm: 0.000792450772 xtb: 6.5.1 (579679a)
C           -4.60943645441984        0.96224672119018        8.14243631719696
H           -5.45476644751699        0.75215664668885        7.49850328448604
C           -2.23595371415314        1.24043652236201        8.43571604131955
H           -1.23277304123326        1.29575966012705        8.02889499798919
C           -3.72157849461213        1.47818338110445       10.31511302718670
H           -3.87517145464563        1.67661141038512       11.36951925919907
C           -2.43912324640495        1.49346300943185        9.78393691284386
H           -1.58947786920113        1.71169947794102       10.42133177439564
C           -4.80691881221046        1.21737849622852        9.48845282710264
H           -5.81160839125812        1.21206547592500        9.89499784820422
Au          -5.78348740979026        2.04055947271408        4.94579688333005
Cl          -7.76477340568028        3.07542702224336        4.63580983384672
C           -4.02639584763588        1.08247033793277        5.14205889456070
C           -0.98475864116878       -0.59468245394259        6.17009243197842
H           -0.67001640598509       -1.38647654325175        5.49095312361877
H           -1.26701698512035       -1.01585338285823        7.13430339466253
H           -0.16753954319277        0.11644174091220        6.30322546741721
C           -5.22860989963560       -0.07586464254543        0.91328378090951
H           -5.90684194002698       -0.81080302350061        0.49556678139778
N           -2.13013161957852        0.07089678513453        5.58617154385171
C           -4.73970614525915       -0.24043735446195        2.20685090181653
N           -3.40427207317078        0.61367215848725        4.04623242582401
N           -2.26552968803433       -0.00492724834245        4.28459022423686
C           -3.16782580823554        0.71639008896688        6.17135116837239
C           -3.32036228751257        0.96162852283379        7.59902869874636
C           -4.01001811665912        1.98622503033804        0.67526117999785
H           -3.74535858843305        2.84789935215080        0.07352896766788
C           -3.87850934048715        0.73767802718789        2.70520980255289
C           -5.15832425906142       -1.42306262365445        3.05288522735214
H           -4.60087593473956       -1.39550204205287        3.99725615793455
C           -3.49948632178745        1.85771414841109        1.96441446567240
C           -2.59845160041379        2.91968949133674        2.55611692274065
H           -2.24414922073968        2.57542958905693        3.53549261442217
C           -4.82875067181479       -2.74648929352354        2.35215134528825
H           -5.06878344162452       -3.58168089462960        3.01046851918223
H           -3.76649275746146       -2.78691812058889        2.10926703212467
H           -5.40132457919457       -2.85734930257842        1.43117916446486
C           -4.86519389786667        1.02677242411858        0.15625267962458
H           -5.25983682492665        1.14415836954274       -0.84657286623279
C           -3.39234109097730        4.21492788492793        2.76619999723748
H           -2.76163102928204        4.96758392011517        3.23935541082677
H           -4.24948002344585        4.02085936000540        3.41132374722558
H           -3.75483409309471        4.60692431379922        1.81587491568674
C           -1.36921141555594        3.16020168606363        1.67207408112773
H           -0.83156652713170        2.22436902415779        1.51682839657013
H           -0.70014984781980        3.87100508017671        2.15753227730773
H           -1.65487090671367        3.56352935634812        0.70051932776551
C           -6.65336325659168       -1.32830479165061        3.38035953606660
H           -6.94639530258195       -2.15198483914206        4.03140225713795
H           -7.25414661305148       -1.36743013881574        2.47168078429673
H           -6.85917871283623       -0.38798729288326        3.89212021147538
