31
 energy: -53.225745176826 gnorm: 0.000046782731 xtb: 6.5.1 (579679a)
Au           4.84382383624493        5.92382628932422        2.27845965132558
Cl           4.84389366245628        3.65493731582425        2.27858414989918
N            4.84386971942359        7.85148243704255        2.27853491198903
C            6.57157663531665        6.21865840216692        1.19528400430834
C            7.47146061203019        5.32547620938819        0.62953215349514
H            7.30131841900707        4.25935792065095        0.73339997653479
C            8.58783661075304        5.77188551220719       -0.06856929127504
H            9.27659262672056        5.05494535844017       -0.50200355229143
C            8.82326922867461        7.13286553657084       -0.21207484856117
H            9.69407838773295        7.48178726770576       -0.75594420633355
C            7.94272592359115        8.04863453431955        0.34124685932755
H            8.13044296571382        9.11091894865898        0.22666139108489
C            6.82169216521417        7.59730118086488        1.04141990018698
C            5.84665786584694        8.48981791231530        1.65199358302142
C            5.86159474918272        9.88184928323777        1.64298739677394
H            6.66054295395359       10.41482831906944        1.14416922557433
C            4.84387077781894       10.57586593302944        2.27854524958234
H            4.84388600908314       11.66003668167201        2.27857535610806
C            3.11618337181525        6.21865545143030        3.36181931896543
C            2.21628425984908        5.32547592039164        3.92755285055213
H            2.38641772936057        4.25935660326162        3.82367921692091
C            1.09989174536748        5.77188873236456        4.62562608099047
H            0.41112836783421        5.05495116436184        5.05905304920186
C            0.86445264366107        7.13286924814684        4.76911607573692
H           -0.00634998962793        7.48179464325795        5.31299319555707
C            1.74498774571431        8.04863499903475        4.21577743905687
H            1.55724363454360        9.11091977071023        4.33031165558830
C            2.86604011256934        7.59729802807487        3.51563752821261
C            3.84107112903700        8.48981465825113        2.90506131862130
C            3.82613406112868        9.88184554668367        2.91407695630138
H            3.02718203998302       10.41482019154218        3.41289340354436
