48
 energy: -66.663282828303 gnorm: 0.000097015925 xtb: 6.5.1 (579679a)
Au           2.56550147018666        3.40418894785203        8.63847159475941
Cl           1.36963818271082        5.27243539109925        8.33168108663279
C            4.13533278341380       -0.48626518147014        8.32251992176137
H            3.53023229603035       -1.39576492283389        8.31680986296413
H            4.91220359799599       -0.55332684918804        7.55327059377327
N            4.72404607182880       -0.20981390708516        9.62382693694088
C            4.63785962927654        1.25950556087046        9.77385813951216
H            5.58375958746012        1.71550915848492        9.46137019373372
H            4.45261525799904        1.53878754351090       10.81188056488185
C            3.55990138936326        1.70480179674356        8.84437204927803
N            3.30429836169740        0.70500475308156        8.06026805073734
C            3.98156984140892       -0.89262878252281       10.70448196986999
H            4.02291492542623       -1.96651981310820       10.49237698232777
H            2.92779303229083       -0.57864477773567       10.72473751069742
C            4.65008860930069       -0.62296068952860       12.02056117631913
H            5.72120418625606       -0.80174064442653       12.03602090542186
C            4.00782927289061       -0.20246644848643       13.09778008667698
H            2.94134793145216       -0.01557685255012       13.09833483737241
H            4.51664936989337       -0.03120534994323       14.03648120736403
C            2.37814789411272        0.73357367107640        6.97244201827324
C            1.05853813669326        0.33633129327847        7.19807115968972
C            0.17389675459776        0.36452039015022        6.12291254751152
H           -0.85797165383783        0.06548597324686        6.26636767657402
C            0.59672857605881        0.78051507803601        4.87062416465888
H           -0.10322098108374        0.79694589433658        4.04312663617742
C            1.90520011584105        1.19254288867229        4.67466093017459
H            2.21570310897282        1.53446313504981        3.69412995056794
C            2.82016506686993        1.17980034399366        5.72455398891112
C            0.58039738362637       -0.07186593915188        8.57440515746379
H            1.42810548428179       -0.03024347224301        9.26911388250797
C            4.23544459505302        1.67282291596899        5.51196687756431
H            4.78753849881002        1.58999172385805        6.45584274363169
C            0.04701138345242       -1.50929376881603        8.56728066123317
H           -0.23591849437615       -1.80426239825290        9.57790221498099
H            0.81749517507835       -2.19205938485124        8.20695873557587
H           -0.82713077741032       -1.59960394132411        7.92231361730700
C           -0.48161166913887        0.91252616080599        9.07848316080688
H           -0.77756295606024        0.65209764416769       10.09474791638991
H           -1.36575172936629        0.89520906901592        8.44136704131417
H           -0.07494562071815        1.92394969571381        9.08117376419680
C            4.95965894465231        0.81812673753950        4.46466798035179
H            5.99446034233123        1.14733123073807        4.36947443581723
H            4.47798666409365        0.90205277497233        3.49035200456013
H            4.95271273074646       -0.22965499360801        4.76726337313372
C            4.22592564705326        3.15223509774933        5.10832568571939
H            5.24830295675599        3.51962135253895        5.01945131068952
H            3.70893472747544        3.73839490209924        5.86824052419565
H            3.71887389852670        3.29562699247845        4.15427616897278
