57
 energy: -82.154037322807 gnorm: 0.000219795964 xtb: 6.5.1 (579679a)
Au           4.26357933674738       12.47941279478495       30.28482624594036
C            3.81300701783221       11.26054092393248       31.83969103703147
C            3.86464005085709        9.57315691390761       33.31019216703992
H            4.18287716676386        8.63043395007684       33.71953953860572
C            2.93083489435199       10.45986005073447       33.73179094596136
H            2.28490702954069       10.44269061087991       34.59189519424206
C            5.40259141880085        9.45917027760229       31.37799307600421
C            6.54263023863056        8.97592920141599       32.01015023305933
H            6.65067588930227        9.07496877269856       33.08343494013520
C            7.53986146173644        8.38331075256115       31.24959846256473
H            8.43193107279762        8.00693860587770       31.73603281469487
C            7.39965376053763        8.27608423518952       29.87233630967827
H            8.18178286387264        7.81266167560481       29.28301787043078
C            6.25420995850118        8.75361851616158       29.25035361772097
H            6.13534646288259        8.65506341925170       28.17755822077512
C            5.24756857583401        9.34464295194468       30.00081016885991
H            4.33601848084834        9.68959297078123       29.52930445649890
C            2.06841798996291       12.66294468681236       32.88282173853556
H            2.35126414397788       13.28312660826924       32.02123070253790
C            0.60546625187821       12.24912516616067       32.74776593157769
H            0.46251629120439       11.67877919984019       31.83066371215250
H           -0.02187659940413       13.13873923449837       32.71206459572349
H            0.29685220429930       11.63671902892222       33.59418234820428
C            2.34382753735590       13.43414157322164       34.17073979640791
H            2.06045503728237       12.84733197080887       35.04362512291279
H            1.76712116537818       14.35812611501960       34.17009598097066
H            3.40313354693940       13.67882243302016       34.24025895309704
C            4.69359455678243       13.70096902258962       28.72636124762164
C            4.58868294660678       15.39500847466019       27.26621022741856
H            4.26713268645966       16.34632000434201       26.87998088104555
C            5.47350896302413       14.48873659152575       26.78469778031112
H            6.06379639820699       14.49395430800238       25.88533850528097
C            3.18048459835662       15.53655173584640       29.29394203192043
C            3.42799190282935       15.63861841315696       30.65863669492457
H            4.35919516882142       15.26786933337013       31.06796074969828
C            2.48832152897258       16.25066190323269       31.47607840102341
H            2.68044142078655       16.34071874441491       32.53890406640498
C            1.31689574909769       16.76003881506366       30.93265086372607
H            0.58727186170380       17.23979494609508       31.57395578233239
C            1.08376602478779       16.66376639821491       29.56719424339434
H            0.17123507523396       17.06460343986910       29.14214733412329
C            2.01383559619166       16.05129140450335       28.74011856481548
H            1.83309614955794       15.96127672767976       27.67585211714343
C            6.33430525780478       12.26184397146272       27.57125126234405
H            6.11931863394043       11.66221241926462       28.46623805979699
C            7.81278287788972       12.64052186637445       27.56127284184159
H            8.05715388905163       13.22568276270958       26.67551872941946
H            8.41895144501738       11.73563941289132       27.56064094919429
H            8.05377164522094       13.22669004284282       28.44734073890305
C            5.92016492674348       11.47886128026107       26.32811707980767
H            4.85492001883255       11.25382799264895       26.36657729776111
H            6.47729508523830       10.54390153024256       26.28559524421082
H            6.12653741566536       12.04945622864055       25.42345357689020
N            4.38626476563357       10.08189537551199       32.14630198577554
N            2.92379199382888       11.48291002990065       32.81729171256240
N            4.12907122740918       14.89340567244041       28.45890265519425
N            5.51502694159691       13.46263851226298       27.69489419373753
