31
 energy: -52.199508104475 gnorm: 0.000125823275 xtb: 6.5.1 (579679a)
Au           1.45274739492030        2.64843467241827        0.30870583469583
O            2.52954955881642        1.22270913960657        0.96664799438270
O           -0.15850382612282        2.44088307149008        1.30154906163896
N            0.62479190822881        4.21827604976589       -0.59208436123959
N            2.96019136091436        3.15402522264186       -0.88854582435891
C           -0.60242666730043        4.68682040465228       -0.35654602132253
C           -1.10834339907852        5.78806409134878       -1.02004309765335
C           -0.31827852620663        6.43002130925916       -1.96218529701966
C            0.95470101647482        5.93890601551242       -2.20364476763049
C            1.41008598256482        4.82644443652917       -1.50506334859525
C            2.72450006686626        4.22511801048879       -1.67423657755374
C            3.69333245602057        4.68099632532713       -2.56108526662596
C            4.91461626050303        4.03127167192260       -2.64039819095046
C            5.13524811922179        2.93325024146865       -1.82210321475152
C            4.13513263917279        2.52522088779029       -0.96059230958577
C            2.30951359097958        0.21894881575382        1.92498146904114
C           -0.56576289871800        1.52531956320878        2.28654513866112
H           -1.18382215307575        4.15546141049535        0.38649392349545
H           -2.10944635953085        6.13367843285532       -0.79650365166611
H           -0.68324016208522        7.29650010029745       -2.50004291380552
H            1.59439049277525        6.41872964774724       -2.93310433924412
H            3.49207721644728        5.54078958750871       -3.18702128130248
H            5.67661590407218        4.37739521772045       -3.32802219007707
H            6.07286422733582        2.39299043765432       -1.84702589544533
H            4.26382332362738        1.67343509261125       -0.30457065132341
H            1.49281651965544       -0.45492767126282        1.63803048109371
H            3.23278273882932       -0.36883357589645        1.98498166248798
H            2.10299500161163        0.63277317583013        2.91959338588831
H            0.05453166767104        1.58569976937081        3.18926211828844
H           -1.59351643032717        1.79093212600654        2.55966827841820
H           -0.56636702436982        0.49226632015476        1.91785985199680
