74
 energy: -101.238223866347 gnorm: 0.000134730728 xtb: 6.5.1 (579679a)
C            6.52543384807313        3.56796571174349        2.64113043862786
C            5.70731622759127        4.68580123019786        2.75386002228114
C            6.58260833947096        2.55115660796519        3.59072666773939
C            7.43552680435775        6.31736422279211        2.22398052269536
H            7.87095318723855        6.04673323939213        3.18426196019399
H            7.50508846773844        7.39659422614960        2.08504372665488
H            7.99688605732965        5.82420450437173        1.42138866354503
C            5.41526162757152        6.18659026032648        0.90270221385471
H            4.36775543196728        5.89192830132587        0.92396404437430
H            5.93544682117118        5.60060051608253        0.13330103228290
H            5.49205546177570        7.24693608583541        0.66332207071093
C            3.69451617630831        5.86077438664528        3.55467111731189
H            4.36460617266037        6.71873438319600        3.58822716242903
H            3.18037360912539        5.76287595936243        4.51219901618113
H            2.95314364433823        6.00567417155090        2.76515914032078
C            3.77094621713886        3.40527539866097        3.58538998472569
H            4.14829604781504        2.62763742654547        2.92069793703336
H            2.70723014853005        3.55546928971653        3.39561856632168
H            3.90739479394588        3.08643907265872        4.62128354921594
C            6.62297415480351        4.11352845042451        5.49611718982889
H            7.21509904791993        4.73603370384663        4.82475388007223
H            7.13437001733442        4.03217444857844        6.45624984759116
H            5.64728284265957        4.58080692118720        5.64896789047843
C            6.35183248683791        1.70333498159829        5.89565625443316
H            5.99807272120089        0.80674283072179        5.38844791201590
H            5.62365118395734        2.00491302688543        6.65073877711581
H            7.30607629265686        1.49610417479364        6.38562895991091
C            6.34332004151454        0.73585348301937        1.98560563994398
H            5.35544494589148        1.15182853496565        1.79613637885682
H            6.27876606408787       -0.35216564047427        2.01911691440862
H            7.01777217012164        1.02204972960219        1.16984656136660
C            8.19844564277393        0.76494441551947        3.53623342047563
H            8.54070457431528        1.15476696600544        4.49254385717438
H            8.86262110188975        1.13365777885605        2.74398550369555
H            8.22671583046025       -0.32430387634047        3.55392054716904
C            8.39323441635600        2.14537444483111       -2.25390039225771
C            7.04709917801050        1.77629386636078       -2.20740639831156
H            6.41201455952792        2.17415727315650       -1.42213126935237
C            6.51952960160794        0.90965375975033       -3.15168437690450
H            5.47275081075381        0.63237886031223       -3.10359647202548
C            7.33284717724679        0.39654716773996       -4.15272312357207
H            6.92228173192098       -0.28390444446649       -4.88947156224130
C            8.67403338532504        0.75282799392328       -4.20660617165859
H            9.31197970435361        0.35158151175547       -4.98556927615538
C            9.20362589403391        1.62063664121410       -3.26500569831469
H           10.25273020404953        1.89113206202960       -3.31049586957490
C            9.19850159208400        4.88466651674785       -1.84487739294195
C            8.73920736637183        5.11095878922393       -3.14303259605042
H            8.29604608415729        4.29996899152767       -3.70944052481132
C            8.85097968156825        6.36924524253775       -3.71622913625158
H            8.49397520871369        6.53093715442508       -4.72680787069758
C            9.41663739671730        7.41555786985131       -3.00181066833170
H            9.50315537979555        8.39719702351370       -3.45263908273305
C            9.86995469057112        7.20347027792127       -1.70585218432042
H           10.31066105033429        8.01794439733570       -1.14249420832197
C            9.75700283031774        5.94940214068769       -1.12903913411648
H           10.11002202102796        5.78616940202257       -0.11573006525590
C           10.74216631904640        2.73488779365282       -0.72814030586932
C           11.83150509463371        3.25204978845420       -1.43314888464072
H           11.67910949827027        4.03747861241408       -2.16446289863282
C           13.11015526591286        2.76995715345488       -1.19721009499619
H           13.94767520429548        3.18005465132835       -1.74963650646205
C           13.31810692398561        1.76734474713425       -0.26024807410767
H           14.31865042922107        1.39285023628809       -0.07853489414046
C           12.24227280324476        1.24701319920571        0.44723799153392
H           12.39945353700681        0.46595785975385        1.18226868796600
C           10.96440490653248        1.72971999948065        0.21695095422672
H           10.12439732690015        1.32584089890917        0.77388061055464
N            6.02536634160360        5.94507211222417        2.21440805107181
N            4.47692265456538        4.65089794701843        3.31982209455762
N            6.48707647221986        2.78232159276293        4.92193160870098
N            6.82323260918458        1.20653684199413        3.27963073150951
P            9.03081276201217        3.28801688924027       -0.99337782206305
Au           7.72513368398461        3.41077781070412        0.93009485396374
