48
 energy: -91.707466617989 gnorm: 0.000084200030 xtb: 6.5.1 (579679a)
Au           2.38586023734945        2.00831219588829        4.64387267064610
Cl           2.54393824905694        3.94174179972437        2.74617001749700
N            0.99165843293691        1.07883834770453        3.54669709140056
N            3.06398257446489       -1.15704633902726        0.56566772632553
N            3.50042147083696        0.63556182026894        3.59770682855410
N            3.79573596436464        3.03134967671186        5.65713922793704
N            0.11377481227342        5.41788583975763        7.34335686250319
N            1.24492907221245        3.10586259472732        5.96534496919896
O            4.70915190816611        0.47591302909172        3.86064058352742
O            0.03068765503843        2.89236326490615        6.10423829500234
C            1.45810555050588        0.23379488686324        2.59583566911616
C            0.56773591525593       -0.31633525439178        1.66993688625900
C           -0.76812755771332        0.02417781299166        1.70021230970221
C           -1.20988789786415        0.91908515802500        2.66846640054166
C           -0.29719227761219        1.42528184999604        3.56718726335537
C            2.86684950152799       -0.05298283801023        2.67026774018100
C            3.56445214902449       -1.01592859848764        1.79885024770139
C            4.68507240801612       -1.73833808324336        2.21286504808599
C            5.30204402745360       -2.59594218894709        1.31760021743789
C            4.78960451366190       -2.71120342941256        0.03379893524712
C            3.66106090182168       -1.97413364466336       -0.29199871293561
C            3.31936004486350        3.99357386588267        6.48141817247282
C            4.18696136792891        4.95056474500397        7.01867150075246
C            5.53114287909981        4.90836269054581        6.71713293758625
C            5.99503734262169        3.90441711458386        5.87162780773017
C            5.09512706322907        2.99959113636212        5.35266384456152
C            1.90985716171633        3.96069704732122        6.71513348549254
C            1.22643302795295        4.79373808995459        7.72751600074110
C            1.73271055757932        4.90825901431063        9.02282051065781
C            1.06223748072271        5.70827228574201        9.93485857306383
C           -0.08957057622553        6.36201613785065        9.52327988192243
C           -0.52727387595760        6.17977355630793        8.21810953745016
H            0.94774615132685       -0.99421415501017        0.91723087954412
H           -1.45699552900037       -0.39517738153756        0.97661794653253
H           -2.24611571103940        1.22478800552901        2.72691603441291
H           -0.59704480603957        2.11848261993053        4.34397534735133
H            5.06513858100336       -1.64506447633809        3.22027938034185
H            6.17369222505458       -3.16570038485401        1.62006863328586
H            5.25128961439435       -3.36290667570441       -0.69778676324551
H            3.21640696036916       -2.03931883699132       -1.28082100313033
H            3.78127548654322        5.73316055038235        7.64725461892607
H            6.20986450166345        5.65030284765040        7.12073431437616
H            7.04058751783266        3.83426124827914        5.60234416762751
H            5.41179486717239        2.21409303646252        4.67756792273892
H            2.62033564913455        4.35946225580019        9.31548276451657
H            1.43127639079731        5.81391789107380       10.94914668504650
H           -0.64248634409064        6.99678481864423       10.20490418278392
H           -1.42794563943106        6.66870505234686        7.85939635917981
