21
 energy: -37.440517009386 gnorm: 0.000182563412 xtb: 6.5.1 (579679a)
Cl           2.76155061144235        8.28744612619204        8.40599357588241
Au           4.15290016594613        6.54856243067673        8.14138897038318
C            5.36051718532075        4.96678962330673        7.91221464806700
N            6.65927103878346        5.00627379091043        7.74583819134882
H            7.18240445803289        4.13477128899544        7.64317010493229
C            7.41214228085405        6.23920286206500        7.70021474210266
H            6.72139084291661        7.07339718985823        7.81361088992063
H            7.93209503623109        6.31976505049725        6.74308356153182
H            8.14452324734411        6.25598901271635        8.51040264535893
N            4.77008643754133        3.75097222390582        7.93819527316707
H            3.77160535137416        3.78224052273904        8.06755209159096
C            5.30678419641838        2.47684993358321        7.81965184342281
C            4.43720510566183        1.38240284956413        7.88598788417745
H            3.37491287555784        1.54309077416117        8.02564127582146
C            4.96374750831714        0.11162742942125        7.77021170307355
H            4.31789323894572       -0.75778318779291        7.81731150293341
C            6.33674780998096       -0.03116664152309        7.59237902568722
H            6.78605658233475       -1.01152087098613        7.49801631104983
C            7.11979478130420        1.10787815463789        7.53816111646006
H            8.19487657697287        1.04266205821996        7.40054550382824
N            6.61949466872081        2.33754937885265        7.64882913926193
