49
 energy: -79.795440576012 gnorm: 0.000148459583 xtb: 6.5.1 (579679a)
Au           9.36424375271804       15.26618913862175       14.46573451760031
Cl           7.29806016316348       15.18512127976505       15.38044273762676
P           10.78516863127810       14.24011394193151       11.96411814648799
S           11.47594072691572       15.29087327508469       13.47484266404482
C           12.17360711912506       13.62427033493691       10.94463569308972
C            9.84612374795720       12.76052572836680       12.48041935926691
C            9.69448386354112       15.12174503529066       10.79133156944382
C           13.47423663504503       11.73749875000539       10.10379137648154
C           12.82987022584624       15.92685305351748       10.28642331191117
H           12.02893254346163       16.31741115268639       10.90367724145009
C           13.02932609726134       14.53482232274202       10.22487566958704
C           14.32315754184533       12.60076039570644        9.37050039935339
C            9.58366908673897       14.67236695583550        9.47159634461134
H           10.15948100290631       13.81380243862374        9.14342537271092
C            8.71182427947051       12.31972337126565       11.79815841870659
H            8.37053418356724       12.84452363505854       10.91344994179988
C           14.09218639864077       14.02692057724902        9.43364897500765
C           14.89744143655099       14.94478348394191        8.73166138822675
H           15.71472572467985       14.58569128740566        8.11788698343866
C           10.26038961682998       12.06946209093651       13.62289883688965
H           11.13455563169776       12.41168674918523       14.16498660502397
C           15.35914829254164       12.01990526238913        8.61482864528098
H           16.03074372434922       12.64514760547843        8.03889982628995
C           12.40873402990395       12.28180171315749       10.87594850266804
H           11.77522944190391       11.58435753816601       11.41350016928048
C           14.67503668878387       16.30037930007478        8.80396738035145
H           15.31058853396219       16.98395413657875        8.25267285608276
C           13.68103662090455       10.34432440037300       10.06449652774754
H           13.01946756082980        9.70064344603432       10.63450139289337
C           13.63331919851680       16.79820872908044        9.59111506275855
H           13.46167111773566       17.86652572859682        9.65335855785374
C           15.54493351091708       10.65611170680579        8.58954535123865
H           16.35107060636689       10.23349160561984        8.00037471471343
C            8.74809468125939       15.32272679406051        8.57762197071296
H            8.67026886441919       14.96430687086209        7.55741934684894
C            8.12149445755407       16.88460971220239       10.29274920299909
H            7.55328192929205       17.74863599512684       10.61718843308503
C           14.70291911953720        9.80890250515360        9.31840336204081
H           14.86016697950043        8.73679514124641        9.29105417912583
C            8.42630099067121       10.53589763814328       13.38716666941472
H            7.86950849419133        9.67657898621511       13.74261645488607
C            8.95871084319425       16.23681282881578       11.18713412963432
H            9.04470601677273       16.59994172130451       12.20445378846622
C            8.00636474676206       11.21573211468250       12.25289236147650
H            7.12089503610141       10.88959545373982       11.71931047889993
C            9.55724992773822       10.96329921745664       14.07026564732977
H            9.88859779469337       10.43814252474564       14.95867801633705
C            8.01407779442450       16.42842310441666        8.98660815500959
H            7.36092458790703       16.93520322128903        8.28552326386167
