46
 energy: -73.855943781085 gnorm: 0.000355253287 xtb: 6.5.1 (579679a)
Au           4.94930375740121        5.31093999148238        3.70731463648171
S            6.21285128842974        3.46982098077448        4.20080720842348
O            9.69501706047015        9.31354567628139        5.90078304782435
H            9.18232841518298       10.08842373948989        5.64270283708890
N           11.83715641213814        6.01875986822132        6.86035890232238
C           10.15975194351257        4.56006574490270        6.05336962315962
C           11.06968759145609        7.05650774074331        6.51143045619480
H           11.48078719142428        8.03878642613398        6.71634494133724
C            9.33259561914436        5.62501187483942        5.67817998622519
C           11.40763386131668        4.78627390122270        6.64299798099245
C            9.00216204187721        8.13465771411741        5.54913240402657
H            8.79862096633510        8.11705953380455        4.46324283165488
H            8.02801510606080        8.09155203404449        6.06941859240120
O            9.77177467459721        3.27128657571724        5.85433167950507
C           12.28797440143629        3.64085348672412        7.04290842639249
H           13.20978854347752        4.01824737879197        7.48178708931249
H           12.52457471536147        3.02679789406624        6.17273574197042
H           11.77401453876731        3.00653548710651        7.76660633772949
C            8.58426454608777        2.90514249938686        5.29326060756654
O            8.33187166219767        1.73753371252895        5.15902247940297
C            8.07048242603029        5.30704234235543        5.08472358098658
H            7.40603630791056        6.11131154487678        4.78491022810030
C            7.68777773874477        4.01538309592257        4.89216410098811
P            3.50777889058826        7.05806201115477        3.17934316041174
C            1.69811442372986        6.71491237347124        3.38020471931609
H            1.11294961883956        7.63822352365515        3.33964848360695
H            1.37239487375161        6.08746367745601        2.54512709892662
C            3.77321772343578        8.53570469016499        4.26310981984482
H            3.12648531832897        9.37052658665078        3.97888790215391
H            3.50060796254647        8.25383780683597        5.28445101105737
C            2.74004861305356        8.90492052870376        1.09293255846606
H            2.90481969881468        9.17676667917361        0.04965781830666
H            2.96819825970838        9.77183593773115        1.71252127473560
H            1.68736763566964        8.65352018014469        1.21999391147192
C            3.63665694750424        7.71865022279835        1.45230133658089
H            4.68211977140902        7.99136605328361        1.27852291147011
H            3.42021110564664        6.88711923317650        0.77408859923816
C            5.23515252886532        8.98415300369808        4.24972719641640
H            5.38249341321194        9.79752289511262        4.96098224085128
H            5.52829978656976        9.33304898197513        3.25940318847145
H            5.88796520060152        8.15618732782150        4.52914062191529
C            1.40916015668777        5.98590513936309        4.69359242952399
H            0.34724788525318        5.74721829253921        4.75860434805134
H            1.67750838413645        6.60480844783535        5.55002819486953
H            1.97843723975279        5.05761307844740        4.74820002165294
C            9.82549375253079        6.92409408527156        5.92459743257490
