43
 energy: -87.225669826493 gnorm: 0.000206573526 xtb: 6.5.1 (579679a)
Au          12.57121398142358        3.73499216961474        1.49069335595980
I            7.55180569853046       -0.87451023681620        6.43189915315883
I            8.36326847748709       11.00112460987602        2.58019852489171
S           14.64021697654947        3.18778885597582        0.64023740735884
S            9.37919700413578        4.49499734606452        1.75795471317862
S           11.02429754598229        4.24939230345242        4.04140104311097
N           10.87180298109791        4.20277348455210        2.40599843108238
O            9.56464422082401        4.23302970188256        0.34896827678857
O            8.36200086902007        3.76362149679580        2.47971707646225
O           12.44100236751506        3.96851432434876        4.23881291909179
O           10.49232602437504        5.47544305925460        4.59228279084182
C           15.03380497961810        1.80616739188265        1.74320523441632
H           14.17424153954906        1.14347667015598        1.80315421178363
H           15.88120803180944        1.26584725348918        1.31873026525092
C           15.38475923732702        2.43719550773919        3.07973819841187
H           15.90918425478441        1.72560829574357        3.72127325033174
H           14.47228488166327        2.76165721967480        3.58619170711971
C           16.26641558971313        3.64546988180116        2.76587490433156
H           17.27940803799472        3.30790740562577        2.52725035714132
H           16.32260676264184        4.31805132294773        3.62416114992444
C           15.67174462591318        4.37347095808090        1.56129389919577
H           16.44682855010046        4.73134664346257        0.88406774141746
H           15.05373606989754        5.21543496371232        1.86492558474533
C            9.08492751718582        6.22325890731068        1.97249151073571
C            8.33941901064840        6.66230911464208        3.05374063248731
H            7.92905030642571        5.94927906262581        3.75694514643137
C            8.13510723750353        8.02265607526850        3.22218797154780
H            7.55622800855782        8.37890108056808        4.06512665482295
C            8.67309206484604        8.93151455295904        2.31618455987410
C            9.41627673808696        8.47021321996126        1.23334427129843
H            9.83270606429752        9.17535305437039        0.52458575398776
C            9.62724391621559        7.11149007979819        1.05780154117106
H           10.19979022287458        6.74446943166939        0.21486226032475
C           10.10614359877050        2.89312024779835        4.70190616508802
C            8.85797388786075        3.12048694421834        5.25698553365968
H            8.45489503124390        4.12417375164923        5.29445812883758
C            8.13531865103854        2.04604975125984        5.75043900644680
H            7.15677944450538        2.21039369848107        6.18390420319372
C            8.65834426465247        0.75815474958579        5.68612060975244
C            9.91585839655236        0.55046928479017        5.12620775236318
H           10.32593915002067       -0.45068786144985        5.07597629818553
C           10.64526454671560        1.61891513232027        4.62877124496242
H           11.62504323406467        1.46357909285206        4.19363055883807
