47
 energy: -135.488019785929 gnorm: 0.000284087485 xtb: 6.5.1 (579679a)
Au           7.00471536623484        4.88538377991697        2.17319340758672
F            7.42144633257865        7.87836696673766        3.23524479540559
F            2.18050554883998        3.98468268354620       -0.06509079326781
F            4.42711921375420        5.43139600378288        0.39344020083297
F            1.90972184617144        1.51951539631249        1.06102026774509
C            5.32801044946917        3.76328082562427        1.75460229276569
F            6.14291597429603        2.00751881179550        3.04969361353809
C            8.67449696750876        5.99198133936609        2.65951653458166
C            4.28948182594593        4.23376780584616        0.96873211890829
F            3.90799114766783        0.52180772564205        2.62155700217216
C            8.61568048686521        7.29517296179315        3.12615879705097
C            3.13548701238873        3.50146313027038        0.72069668425986
C            5.15365875961759        2.50372388965370        2.30121054052442
C            2.99773953249962        2.24091244994878        1.29133538829738
C            4.01855517321070        1.73276507859222        2.08725139912548
S            8.06555242244144        4.41146062789538        0.04720911033514
F            4.32420083744817        6.23782133325127        3.17155508780813
C            6.97235191406774        4.87134359184375        5.15052431323933
C            5.04260910361803        5.86855766742341        4.22742169709637
C            6.26148034446870        5.24548529045161        4.02339457901039
C            6.85749108877826        4.08712390592895       -1.26983079270493
H            5.95058645327996        4.66082866333477       -1.09612692601875
H            7.31733431983318        4.42094325481160       -2.20099384483739
F            7.21990877925528        4.72957687566573        7.49142780395722
F            8.15020113259988        4.26971091379221        4.99275760172172
F            3.35977077561402        6.70444952767806        5.65169236198899
C            6.50443623774436        5.10236470822655        6.43789573790741
C            4.53798908409124        6.11389116245924        5.49905255275264
C            6.61408954565953        2.58486853503996       -1.28507328751416
H            5.86351412615640        2.31977753775146       -0.53518795965267
H            6.25245908505921        2.26594856838193       -2.26481670176044
C            7.94680186320199        1.91833192624596       -0.94467240431600
H            8.62394754959594        1.98949234609386       -1.80030623953894
H            7.80722147152086        0.86343456427405       -0.69979784847126
C            8.53556814372421        2.66311171000374        0.24521489626567
H            9.62338109308248        2.62388040522649        0.26442571948572
H            8.15093903861098        2.28119775093161        1.18983994894498
C            5.27558236524687        5.72897278622599        6.61287087976476
F            4.80928084790838        5.95358123881571        7.83210491595693
F           10.05815836155012        4.18021159633885        2.13638215868117
F            9.62933481362014        9.27418540263746        3.91814043512008
C            9.94190059190220        5.43905779982138        2.57720848789456
C            9.74319545795221        8.02513631035476        3.48230872782205
C           10.99729810947827        7.43523388925095        3.37632010760910
C           11.09861312122160        6.12690853516382        2.91715033902702
F           12.08639924411068        8.11509477247973        3.70455067607666
F           12.28887703512727        5.54877795309129        2.80169561485833
