78
 energy: -101.809423003741 gnorm: 0.000126010862 xtb: 6.5.1 (579679a)
Au           5.18196649342444       10.38886243527857        3.32566371310662
Cl           7.28591195691920       10.72944442599078        2.56742422722655
P            3.01811567006313       10.19189410876296        4.06483060099558
C            2.34224050151858        8.60544881875525        4.70286565894930
C            3.21569080668592        7.50034525441838        4.71692643223361
C            2.79613304897337        6.26159727636625        5.20168402089190
H            3.49546097242114        5.43332355718108        5.19719068236074
C            1.51063331215092        6.08928596063865        5.67956392105424
H            1.18655935659767        5.12657071088134        6.05712591897370
C            0.63858024443053        7.16416351060336        5.66505100889391
H           -0.37414172112860        7.04060402000788        6.03096598919285
C            1.03151732148971        8.41396842381515        5.18579325393397
C            4.62146543853585        7.53622899592479        4.22347984480863
C            4.89332906132306        7.20881274290647        2.88755195298027
C            6.21865876908190        7.09848614204406        2.47476731962625
H            6.44463067900179        6.84059128045183        1.44656294452388
C            7.25613102578012        7.31041537666733        3.36819842960470
H            8.28331760375232        7.22132925378140        3.03482761942697
C            6.98300149948012        7.64346665710806        4.68485351492734
H            7.80273034658393        7.81118276097908        5.37386945526359
C            5.66820178832173        7.75870880748733        5.12888703102124
C            3.76426147780623        6.96118473476259        1.90755835168869
H            2.81290966549972        7.21541421086703        2.39364874301054
C            3.71297264733421        5.47707254397845        1.52329886328872
H            4.63740040706263        5.17314098526919        1.03179905961168
H            2.87935176112150        5.29382902918515        0.84481209423466
H            3.57745311608089        4.86688212788830        2.41691628906715
C            3.90087357837119        7.84578318898322        0.66331207069680
H            4.78370014955003        7.57965722701164        0.08247285756412
H            3.98567720529849        8.89219216920396        0.95946619065399
H            3.02125837546018        7.73381815883118        0.02858705095715
C            5.37764839540933        8.11361976591875        6.57311050811737
H            4.29294781685341        8.23402058695064        6.69518615734914
C            5.83257004186715        6.98127469696585        7.50231164812675
H            5.33063845231019        6.05246442362206        7.22919754726665
H            5.58390534545846        7.22227464625944        8.53620020918471
H            6.90950792876481        6.82883177895685        7.42869437005000
C            6.03980378988903        9.44062972425306        6.96052360305564
H            7.12636018172077        9.36630209211865        6.92315547262925
H            5.74486741679776        9.72376090848827        7.97143638894098
H            5.72415667756819       10.22661504079436        6.27303535844830
C           -0.03217853524025        9.46153681832068        5.22402097778084
C           -0.91828262820528        9.58430378702287        4.14168066852195
C           -1.95563730306451       10.51046428813298        4.21990212791209
H           -2.65073261122914       10.61786207877946        3.39562932258286
C           -2.12539183222744       11.28817973699950        5.35370998471665
H           -2.93625795245101       12.00625956617486        5.40104499322943
C           -1.28443227314805       11.12175501556468        6.44170466752453
H           -1.45877848276084       11.70300222838935        7.33946390583584
C           -0.23733784551365       10.20408085512794        6.39742729481208
C           -0.81479408383914        8.65570615194887        2.94431084179961
H            0.21332019681757        8.27530945270630        2.88288285228991
C           -1.75161326560726        7.45582529691447        3.15148478969747
H           -1.47073632864789        6.90196969457589        4.04645427075643
H           -1.69126102081766        6.78439387172858        2.29461577735638
H           -2.78252794133729        7.79348054850342        3.26164519633579
C           -1.15235401526808        9.33760977265056        1.61249403200936
H           -2.22281948066865        9.52525259698467        1.52540504704890
H           -0.85347866750929        8.68940215526359        0.78817176503356
H           -0.62748250218546       10.28695580820391        1.51319172416418
C            0.60059447177182        9.94696715336638        7.63756031563813
H            1.54382365782903        9.47529202982995        7.33203975718664
C           -0.14380394950765        8.96739634180544        8.55774987453758
H           -1.10751372327711        9.38265212075986        8.85406823420290
H            0.44704420290755        8.77659298207019        9.45395072276564
H           -0.31694069319055        8.02028418736127        8.04829194793133
C            0.93429923516601       11.22232303156526        8.42192160735572
H            1.31093435186727       12.00249558511740        7.76163034526813
H            1.69957422631963       10.99991624186250        9.16613357625382
H            0.05649775699729       11.60623049595179        8.94226372665778
C            2.69786447603172       11.44244502380452        5.37459729224895
H            3.13836819204200       12.38848762409845        5.06103383173233
H            3.17829956538056       11.14417872782913        6.30478714390151
H            1.63758988102317       11.60440956753972        5.55644683392854
C            1.86572283145376       10.76301339624009        2.75020692713282
H            1.80919261344370       10.02431099264584        1.95280733653973
H            2.26435176258685       11.68285558919698        2.32301257432620
H            0.86307910846996       10.96610062462798        3.12025133901574
