59
 energy: -95.621266365231 gnorm: 0.000178800024 xtb: 6.5.1 (579679a)
Au           4.85199651870957       10.02633550989064       19.69188523123027
Cl           4.67791595629068        8.58340871596527       21.44987423145450
P            4.91382628098881       11.69400244628895       18.11829999604959
O            4.73962632076509       11.89173803410924       21.75655453115492
H            4.70496992626588       11.10865171174015       22.33045043483071
C            5.34818809281337       13.33720397112120       18.78607749863503
C            6.47524879219037       14.04841860954696       18.30915545021346
H            7.06840932882678       13.62376233926108       17.50790619203812
C            6.82184757899400       15.26148755614776       18.83498084284876
H            7.68563506015761       15.79470051955906       18.45275540538428
C            6.06570339317723       15.83815818833672       19.88064303209356
C            6.40668531336412       17.08814152202291       20.44748184142617
H            7.27421014182341       17.61528791367041       20.06482301015591
C            5.65781126861745       17.62285189031710       21.46187148981872
H            5.92428643358135       18.58120831102879       21.89333659935400
C            4.53645650920337       16.93056404010309       21.95506704680363
H            3.95555596163351       17.36466511502732       22.76109147996913
C            4.18048275390207       15.71920330797630       21.42542017821383
H            3.31747271577941       15.18840862937306       21.81107163441432
C            4.93059184256284       15.13891133424741       20.37317081146659
C            4.58337301975898       13.88155334188199       19.80692923707856
C            3.37680222693725       13.17626243922429       20.32153077130125
C            2.08371146519057       13.53526077601046       19.85368333429727
C            1.88869075211279       14.57142974418231       18.90832312159310
H            2.75172539740084       15.11548435624000       18.54069605368222
C            0.63352470859647       14.88774706362154       18.46103951909766
H            0.49902133627139       15.68355372691859       17.73678429722097
C           -0.49009951411756       14.18277904140695       18.92965845961200
H           -1.47536820924606       14.44245114912302       18.55938897835465
C           -0.33644259403066       13.17926964234324       19.84918268838819
H           -1.19857014462102       12.63435984561225       20.21902845039074
C            0.94486533178562       12.83406884359528       20.33845796831862
C            1.12291640380205       11.81180124510321       21.29978134237847
H            0.25376414685004       11.27414440015428       21.66220216258483
C            2.36869025535993       11.50734312747686       21.77443744026888
H            2.51317416187195       10.72992871626644       22.51560821995707
C            3.49913040698555       12.19991495251329       21.29312870863750
C            6.14343422646600       11.39218361842913       16.81133649443483
C            7.43740760823798       11.05284112245224       17.22215129522891
H            7.66749192400803       11.01638677734353       18.28183583344878
C            8.42207517061729       10.76170707309164       16.29281224763357
H            9.42137183733577       10.50704158914029       16.62717835000171
C            8.12569949394875       10.78822656855605       14.93593286694701
H            8.89393082551790       10.55634533889487       14.20713259952690
C            6.84110076345195       11.10342036935186       14.51700345586788
H            6.60178123080780       11.11618536286148       13.45951171644811
C            5.85531294005985       11.40231820519682       15.44645149867347
H            4.85550694372633       11.64230655713450       15.10328975874173
C            3.35250600358757       11.98909622204096       17.23429768759311
C            3.17490559487014       13.09653515710533       16.39923708030760
H            3.98255293812113       13.80882649503633       16.27021688580886
C            1.96822569347298       13.29621675430072       15.74722352623573
H            1.84150772159791       14.15822301532492       15.10202889469020
C            0.92052487428685       12.40252116223783       15.92880430126820
H           -0.02528338287948       12.56649535838013       15.42522606501013
C            1.08360102162572       11.30499295068940       16.76232686896294
H            0.26605843178961       10.60936780584126       16.91320071550295
C            2.29295644834207       11.09893139650050       17.40807796264252
H            2.41900235042989       10.24336902264846       18.06244620435275
