49
 energy: -77.573718755702 gnorm: 0.000213235061 xtb: 6.5.1 (579679a)
Au           6.29900037195154        5.07350312486264       13.75567940860774
S            8.35716419233675        4.78123458401210       14.89421510819316
S            8.29123994896234        6.79345232371910       12.75202277875083
P            4.22867904866977        5.41666458694197       12.76110977593933
C            9.09121875520728        6.00433287459116       13.97918459121795
C           10.48076705389291        6.34808151406381       14.29511906874214
C           11.17994740465067        7.27103433330063       13.50807099604088
C           12.49176865454714        7.60119115471893       13.79880971293247
C           13.13409422511793        7.01705958835596       14.88397269774074
C           12.45333635531949        6.10052704828817       15.67547100114250
C           11.14085995685430        5.76847733704641       15.38492337992811
C            3.72472647200754        7.16410310955275       12.85238255293525
C            4.72188779174271        8.13126557378108       12.99743874124802
C            4.39537607302466        9.47621397155246       13.07002710779560
C            3.06688465022520        9.87370663327895       13.00533136517129
C            2.06606133285700        8.92065432785096       12.86789060748428
C            2.39043104721338        7.57509962806379       12.79158306302210
C            2.76336300547202        4.53080590082261       13.39125668653758
C            1.72860073899463        4.07453945884769       12.57222610367627
C            0.63997930411989        3.41234947733208       13.11999952137575
C            0.56882890370668        3.19857897886545       14.48977309527791
C            1.59403976115962        3.64524608012375       15.31337730924362
C            2.68460047144391        4.30234706547418       14.76686469467629
C            4.21020870387349        5.04538557167903       10.97758523922161
C            4.61666277964638        3.76715992838661       10.58256210351446
C            4.67111271521914        3.42602621897170        9.24126542970266
C            4.33249239021444        4.36215871819440        8.27238169257488
C            3.93975500605214        5.63766847333137        8.65236708155313
C            3.87920344154409        5.97937524292903        9.99552429734102
H           10.67261200918592        7.72350060381584       12.66164629849566
H           13.01896485706743        8.31696985627164       13.17743203342948
H           14.16223605545021        7.27559673900830       15.11189668286007
H           12.94995040848583        5.64303355138603       16.52429123865227
H           10.60924386992625        5.05401060769889       16.00444646625822
H            5.76076655919402        7.82339309825894       13.05476773921667
H            5.18023169186958       10.21580991118086       13.18175558553270
H            2.80983386290371       10.92523701844691       13.06588783509242
H            1.02669338803614        9.22654542851056       12.82057574301317
H            1.60143174711569        6.83810944621482       12.68760238386328
H            1.77654552995895        4.23467613385649       11.50091210127751
H           -0.15700939019122        3.06247827470525       12.47325124673030
H           -0.28317550031228        2.68053422579751       14.91519726298838
H            1.54528888380052        3.47647795773320       16.38328325923153
H            3.48988331908410        4.64268468473623       15.40971587531203
H            4.89211793537426        3.03801774452715       11.33749955785799
H            4.98450046102616        2.42991489272210        8.94953566476890
H            4.37998209215850        4.09811921573408        7.22199442839152
H            3.67969906867777        6.37313330922326        7.89919375244795
H            3.57281259517687        6.97931447123567       10.28079963298667
