34
 energy: -62.963395844615 gnorm: 0.000137287283 xtb: 6.5.1 (579679a)
Au           4.66722252662187        7.92880690915775        3.73288698898953
Cl           3.08960323912305        8.61455054368622        5.15958704354177
Cl           6.09141354706572        7.48875420129347        5.39804719717953
N            3.88443260444376        8.61832826151865        0.99256114169465
N            3.40346513963360        8.28808320006414        2.21410358002434
N            6.07814893704117        7.79395825993270        1.16622971896621
N            6.05193390245022        7.29449023649440        2.42416736538955
C            2.09596455330582        8.12309302612878        2.12551965665420
H            1.51687177388480        7.85867077151831        2.99466048587237
C            1.68054814534043        8.36288626674671        0.80367468939556
C            0.44457889264126        8.34974051059866        0.13275535660698
H           -0.46719093125330        8.10529806063630        0.66309691142690
C            0.43888892136415        8.65698738562331       -1.20665182584020
H           -0.49581299757854        8.65796828554903       -1.75464711311307
C            1.62490149321918        8.97495814776268       -1.89566840542671
H            1.56755765883802        9.21031476681124       -2.95207681010895
C            2.85136578553820        8.99548711302500       -1.26664525002705
H            3.76013895813502        9.24010021561903       -1.80220425659447
C            2.86278915188669        8.68505787552923        0.09491020782363
C            6.92827225364498        6.30986345120590        2.50873440239203
H            7.06641925065102        5.77728677306203        3.43499367442741
C            7.57560657587043        6.14933070243150        1.27078466177825
C            8.57801640808620        5.29528150259157        0.77713497967163
H            9.02314950655964        4.54227126255099        1.41523592103049
C            8.96708682090617        5.45260679444787       -0.53142024763412
H            9.73782959028009        4.81277831603529       -0.94438784477071
C            8.38792159366499        6.43213527642756       -1.36061761537782
H            8.72944699576212        6.51630181269818       -2.38577817747474
C            7.40322418496216        7.28338965128448       -0.90668827706761
H            6.96108131002873        8.03424144262650       -1.54953964833821
C            7.00476915862201        7.12858467678166        0.42281549834283
C            5.27908698517283        8.95240485517778        0.86010702197594
H            5.47350034809578        9.25259428431592       -0.17092377867018
H            5.53076771599189        9.76729516066733        1.54934274726044
