51
 energy: -80.190477184907 gnorm: 0.000472826000 xtb: 6.5.1 (579679a)
Au           1.78071098386920        7.79844139811945       -0.80646477049246
O            1.24501567156403        0.19534035063450       -0.51338172387847
O           -0.69518498261098        1.44081029074107       -4.40395625771434
N            1.08713038296358        2.42947335841072       -0.94443619827816
N            0.25642530497702        0.86299003080740       -2.43612459464024
N            2.32399986220585       10.81758224995603       -0.51062497761421
C            0.89115778394159        1.09286465899409       -1.24878136553084
C           -0.15202219061540        1.80781905265245       -3.38305903140907
C            0.15281133130223        3.16022286634136       -3.00106063600605
C            0.76631279813164        3.44087031829159       -1.81750873026920
C            1.78961424133380        2.70747121927668        0.30767876836025
C            3.30203825851405        2.70258747418221        0.06786627485303
C            4.09012458235981        2.94398204536744        1.35927876564332
C            4.05153568561222        1.73646499343624        2.30233482328445
C            4.91613610354361        1.97305674061189        3.54437583440577
C            4.90924606353697        0.74915193430423        4.46561964652640
C            5.77349360884251        0.97945326333929        5.70920113930556
C            5.78615341074141       -0.24970066486142        6.61663834448142
C            1.09438930892470        4.77026318419024       -1.44451388825685
C            1.36372498003425        5.92379242800333       -1.17295204329900
C            2.15149212275000        9.66323069522498       -0.54810599465102
C            2.53492941630197       12.17098678437222       -0.45709619891249
C            3.10895365944647       12.81824254335286       -1.55187419082257
C            3.31715781530439       14.18634747909253       -1.49161763053249
C            2.95793065565964       14.90083593072516       -0.35544515791702
C            2.38649887287027       14.24766219086233        0.72956917149673
C            2.17053177750539       12.87995443433159        0.68797359810020
H            0.09425743365147       -0.10613018160576       -2.67089075400113
H           -0.10905557762786        3.95289973675305       -3.68673099949720
H            1.50651361367414        1.92805195828541        1.01977588505143
H            1.45701450686814        3.67812170265560        0.68543318668722
H            3.54487351612254        3.48603320217126       -0.65665461355984
H            3.58839090882440        1.74098328021876       -0.36788724581011
H            5.13161842677496        3.15545534917577        1.09502584720728
H            3.69508261772105        3.82798571531150        1.87233124240278
H            4.41335202834296        0.85049671632344        1.77018701769632
H            3.02145610234502        1.53724271801735        2.61414365608873
H            5.94478897998033        2.19227166494204        3.23737237924062
H            4.54065443259418        2.84537097886985        4.09079130860932
H            5.28528206279845       -0.12079214998327        3.91645642835135
H            3.88091325618347        0.52821445720530        4.77139427963606
H            6.79826740421267        1.21510954155359        5.40217324485057
H            5.38816624729669        1.84003601185760        6.26676446783011
H            6.19046037907170       -1.11265427418168        6.08556347729312
H            4.77532482467093       -0.49088032427738        6.94864171957047
H            6.40437850172057       -0.06271836427904        7.49533788188410
H            3.38325925046993       12.24809358620715       -2.43077491702621
H            3.76252807180499       14.69854322953838       -2.33661294026029
H            3.12386906896400       15.97095177162792       -0.31548603189410
H            2.10715133211265       14.80780009389660        1.61440648469076
H            1.72564510245350       12.35741632888179        1.52570601872152
