69
 energy: -98.364923511053 gnorm: 0.000288673076 xtb: 6.5.1 (579679a)
Au          14.70145402782491        8.95333821168072        5.13188941466033
Cl          16.44362374206083        8.71292506271908        6.50181056414988
P           12.91370197331017        9.20030537324778        3.73308819609186
N           12.42080190575961        7.33990728861206        1.75860982514367
N           13.28820362869299        9.22033414083254        0.99990810444668
N           12.71257419286659       11.43571313847328        2.13049166144752
N           11.35032014912499       11.46800885661901        3.86443642561678
N           10.34995785541847        9.29047028668792        4.74725698806829
N           10.84469441787779        7.37672959071137        3.76892655602281
C           12.91504500986942        8.53717378648021        2.08595340168374
C           12.57258925135741        7.21645985304925        0.40719656639146
H           12.30325670050470        6.32045423059788       -0.12403852511239
C           13.11052367076431        8.38218514824272       -0.06290599998202
H           13.38247282516031        8.65740102640165       -1.06689929979004
C           12.32831323025220       10.80315169600982        3.24279391438835
C           12.01162796886543       12.60681941194044        2.09092306283714
H           12.16199791602358       13.34344767504723        1.32131832912573
C           11.16704495380580       12.62683536410541        3.16587021275254
H           10.46811942466313       13.38340375017266        3.47673809419970
C           11.30212713336784        8.57577861196449        4.14073113389230
C            9.26130864580375        8.47320014459442        4.85055620501215
H            8.35722989224534        8.77626292659113        5.34908149632885
C            9.56796874714839        7.28686009613656        4.24404492232027
H            8.97196924478583        6.39794551228503        4.13285978736124
C           15.21075729251485       10.85889329538257        1.62490739098753
H           15.27248611603168       10.25422188921038        2.53959698807989
H           15.91354263486294       10.41717190895059        0.91188400319695
C           15.66417476166913       12.28276192984821        1.95881321998875
H           15.66619733914110       12.90434801921920        1.06205703857793
H           16.67186562382533       12.27733290544607        2.37594733733498
H           14.99039105161463       12.73520366283877        2.68886415707667
C           13.44462744386358       11.44821317110709       -0.40724757901832
H           13.71560994273516       12.50852837803045       -0.36977346078970
H           14.11500683324632       10.98771693394488       -1.14061215936211
C           12.00635315006731       11.33932176749195       -0.93158827764539
H           11.92256615678419       11.81296056829159       -1.91094147932354
H           11.30497703902030       11.82848655896803       -0.25397424393618
H           11.70300161759455       10.29586971923275       -1.02933631351048
C           11.43985240180855       10.95561020260102        6.42503107436106
H           10.90610726749155       10.54511570401349        7.28759324613254
H           12.33305575147719       10.33229275859014        6.28489242805676
C           11.89506509448008       12.38113925374723        6.74939016333400
H           12.45321209292667       12.80225755900000        5.91106306056031
H           12.53779692414521       12.38836489594917        7.63048561446590
H           11.03452642796741       13.02258564652350        6.94575190981483
C            9.05785714346462       11.55184383984120        5.17200343413460
H            8.49541408978383       11.12319291833592        6.00817131218601
H            9.17518787660755       12.61700363596188        5.39728711728617
C            8.20869291999925       11.42130299676611        3.90024918750802
H            8.71111013409572       11.87788409349864        3.04612779035158
H            7.24521717972597       11.91536555123381        4.03466178522961
H            8.02475157690292       10.37350028540007        3.65799165721669
C           12.80194288099973        5.66242720328008        3.72626664733432
H           13.34123615442723        6.43312813186417        4.29299989134424
H           12.32921048679048        5.00711123829458        4.46417741770808
C           13.82359706283214        4.85499774131801        2.92079989437565
H           14.32532355310844        5.49485255730416        2.19244140706313
H           13.33170581693216        4.04290118802900        2.38315159336323
H           14.57841328851537        4.42389198916369        3.57952121821122
C           10.64502210898398        5.40535304324512        2.02736651745472
H           11.20848873865973        4.73648706364839        1.36845591694504
H           10.13365570342818        4.76165629799601        2.75082529115508
C            9.58332378829440        6.12594282116750        1.18530079585694
H           10.04830696712654        6.74541306785959        0.41685916943587
H            8.96436599753909        6.77447866164234        1.80718660645630
H            8.93265865703518        5.40141073587651        0.69325490331775
B           13.70938086565201       10.78359232469981        1.03551024182537
B           10.51120379461323       10.86116080756058        5.10753534094038
B           11.67233374365554        6.36589389441868        2.81190970785529
