25
 energy: -46.758120567626 gnorm: 0.000586802800 xtb: 6.5.1 (579679a)
Au          -0.47576106751409        2.75397981590625        5.28946171171731
C           -1.87745700730208        1.47563915633048        5.88850080792526
C           -0.08429534234133        3.34751474627218        7.09905561463111
C           -1.61327762070362        1.36343708203363        2.82290039259200
H           -2.23037677845924        0.85592850745174        3.55413603012132
C           -1.72687977039196        1.09245614683119        1.47380333436338
H           -2.44502721571641        0.35913837991970        1.13080946469105
C           -0.90835764542505        1.77407724729856        0.57690054831898
H           -0.97597968744181        1.58140191886770       -0.48755546650414
C           -0.01051967024297        2.69859888633191        1.06914486309440
H            0.64699483102650        3.25363095114245        0.41121529686305
C            0.05720750816761        2.92875849656567        2.44598962195973
C            0.93203659732581        3.84923519494336        3.09236133221323
C            0.90086903602844        3.98192335327607        4.46487768842983
C            1.84400034698489        4.94129029465152        4.89655350374920
H            1.99259682518411        5.20618695394231        5.93396365297009
C            2.55450914853995        5.50382143166267        3.87085269155427
C            3.61550948593969        6.54794026613946        3.97596229727142
H            3.28614083386027        7.47734203735815        3.50664537619372
H            4.52821207208785        6.22345995094281        3.47344939248113
H            3.84256243655884        6.74838200928608        5.02300543014274
N           -2.70768169000841        0.70084344010878        6.08291588964580
N            0.18535908443584        3.73404976674013        8.14715764859203
N           -0.74703841053261        2.25576948003388        3.30171839821911
S            2.09485369993950        4.87889448596402        2.32847447876510
