66
 energy: -94.776626896281 gnorm: 0.000187271238 xtb: 6.5.1 (579679a)
Au           4.91138843661390        5.28815242543607        5.36082452886583
I            6.36036672017222        7.90230643797426        2.18040091376137
N            4.26678631680091        9.25011609061070        3.88591420393087
C            4.95888688942793        8.10462330723111        3.70280090783256
N            3.43563108984781        9.16600454268058        4.90270611253272
I            5.24106354097749        2.97245463051813        6.34239931494541
C            4.53921360437735        7.21327579030571        4.67720989226795
C            4.33900647378432       10.46580287610102        3.14256742639316
N            3.62516973194137        7.93503107728370        5.35019944310034
C            5.31060162847787       12.61747321564362        2.80649167152618
H            6.00714902963754       13.39989315818230        3.08251196380351
C            4.45700659795308       12.81502295694513        1.73170585907919
H            4.49909540846007       13.74625768980991        1.17808010648876
C            3.54282505253798       11.83948297068031        1.36335330636199
H            2.87860335322486       12.02298813976464        0.52753834025670
C            3.47108103691632       10.63814645424344        2.06310738708151
C            5.26993907338024       11.42995751511221        3.53201116028947
C            2.45409612658887        9.56632209701628        1.73359055466684
H            2.84687241667636        8.60184246583973        2.08059554287041
C            2.18042815760877        9.44612586573346        0.23223387534113
H            1.56865457946976        8.56350979280626        0.04463917813981
H            3.11768734822652        9.34215783007195       -0.31489941037319
H            1.64627930899400       10.31737960722185       -0.14735152651039
C            1.16085220744775        9.85516333244931        2.50940020358728
H            0.75169154826116       10.82519500143352        2.22545308811030
H            1.36788883415279        9.86130060667432        3.58003689173028
H            0.41925931145888        9.08487171033862        2.29834571159087
C            2.88210712029583        7.47069655336212        6.47517049100653
C            0.99448372523643        6.30769829730091        7.36041544798109
H            0.06323093654479        5.76985875327301        7.22515347343148
C            1.49736189480776        6.49100294409162        8.63908738107320
H            0.95396236999188        6.10006822107117        9.49193637429914
C            2.69639692008892        7.15850740589407        8.83480802857126
H            3.08241687092787        7.27862436699806        9.84046342804935
C            3.41190643004099        7.66198196874497        7.75154167847242
C            4.74660577975091        8.34687785822125        7.94730309233936
H            5.06855491079043        8.76849849221725        6.98717987415137
C            4.64342211741541        9.49791025435337        8.95444526794350
H            5.59467831538801       10.02836475066724        9.00595178303654
H            4.40060265528123        9.13033289381027        9.95166816132233
H            3.86854414649750       10.19924597190531        8.64347258048736
C            5.79468231439683        7.31786686577111        8.38742718594202
H            5.85331377005849        6.51721845556676        7.64911901123943
H            5.53023100979552        6.88271749215227        9.35147556778606
H            6.77298717488621        7.79169180835601        8.47072666848845
C            1.16659631358956        6.56115563235752        4.84898231541498
H            1.79214724129829        7.12556247116976        4.14645588632141
C           -0.27676302771567        7.05379969149315        4.69354325410820
H           -0.58819162426862        6.95892216118959        3.65291742080149
H           -0.34837652757621        8.10182994707304        4.98589801323224
H           -0.96140883832694        6.47259318213647        5.31163380619591
C            1.28398512052884        5.07332114831197        4.49774834913151
H            0.97106652223975        4.90585026841812        3.46694789675533
H            0.66196092177427        4.46833074748197        5.15787065911566
H            2.32074285241524        4.75291539490684        4.60705108218465
C            6.14054602627969       11.19423816768597        4.74771273507402
H            6.24233378749559       10.11139211651502        4.89415810782374
C            7.54752602136258       11.77723891398933        4.59318533503724
H            7.99837154030334       11.42947290379719        3.66339561011600
H            8.16997278315864       11.44854293185695        5.42563278982138
H            7.53079880649353       12.86723287414907        4.58992343634352
C            5.43246688497171       11.77171406561734        5.98156566608546
H            5.28042119618954       12.84565066492523        5.86950826403762
H            6.03150949992098       11.59225185863563        6.87420438188163
H            4.46150763840949       11.29104764903918        6.10587950261144
C            1.68127457585145        6.79651626739241        6.25207334461965
