25
 energy: -48.025237769207 gnorm: 0.000168341547 xtb: 6.5.1 (579679a)
Au           8.59602620484367        9.62096978201808        6.64374572736205
Cl           7.74696750370141       10.83055075497795        8.39058228202863
Cl          10.46026227965938       10.86923833558348        6.57764541470005
Cl           9.30755950044828        8.34709936124672        4.88252018030574
N            6.92237638175039        8.50069552270872        6.68823800853846
C            5.79739470229413        9.03997777299061        6.21494994728834
H            5.84319219129947       10.08763085669175        5.94945486789533
C            4.63783942689313        8.30821962849736        6.06669095904804
H            3.74740143677024        8.78553802146089        5.67865049038353
C            4.64380956709061        6.96323349746748        6.41332406991667
H            3.75392357481726        6.35612264050077        6.29819677938849
C            5.81053501325659        6.41927441287019        6.91797914665292
H            5.85890037406496        5.38055319579733        7.22044324921222
C            6.94341917280930        7.21524920697911        7.06004441581250
C            8.18480831149174        6.66500588852940        7.63247441613470
C            8.75673891410538        7.24806653666865        8.76484622871199
H            8.26358141658756        8.08294775617577        9.24717752746789
C            9.92838100402914        6.72841297204920        9.29481651049052
H           10.36676665084557        7.18480813578430       10.17451826066136
C           10.53483048262179        5.63018246715796        8.70159350541046
H           11.45544803544686        5.23186513739589        9.11196112790903
C            9.95980598666755        5.03858624112894        7.58457046760962
H           10.43063639906283        4.17954305337650        7.12081897676201
C            8.78413278612280        5.54605675884518        7.05458860049045
H            8.34366268331637        5.09917206309819        6.17076883981953
