45
 energy: -78.353293854701 gnorm: 0.000094364301 xtb: 6.5.1 (579679a)
Au           3.89391702211060        5.20994321261522        0.00004690208988
I            1.39796478006553        4.31563760473749       -0.28820673531860
N            4.71926437659689        3.41111670493509        2.30739412120347
N            3.31474121561107        4.89019019278072        2.93696452009170
N            2.77200347581294        6.93073734621700        2.00423253574967
C            4.00269007059178        4.44776262482898        1.86027586702048
C            4.49410902084445        3.19025845489233        3.64514566031956
H            4.98417075151579        2.39957904302996        4.18570901872130
C            3.60404426371777        4.12274501177031        4.04663853796975
H            3.18060281740578        4.31934214243974        5.01503914114401
C            5.66801260442010        2.65356348853253        1.51753809439521
H            6.25382951075047        3.35884818933257        0.92090597185193
H            5.13427702946432        1.96318874836531        0.86354632821855
H            6.32251783907688        2.09413755941251        2.18365434976751
C            2.50163619007776        6.03730038907212        2.94818456666563
C            1.50760566601312        6.20938197922601        3.90459487150314
H            1.29885818006662        5.43853168800033        4.63437451485771
C            0.78187703693732        7.38882236493503        3.88690932393960
H           -0.00433426704980        7.55901751684940        4.61268219308353
C            1.08750382331017        8.34510679239020        2.92818487969540
H            0.55701884232003        9.28801550078202        2.89361571203199
C            2.08573381867701        8.07179548467840        2.00825009115878
H            2.35639753909905        8.79859122221431        1.24942747724483
I            6.39005056947335        6.10383184611739        0.28831695722587
N            3.06872430665379        7.00873043573388       -2.30724816486777
N            4.47347985876571        5.52992030560447       -2.93694508151691
N            5.01620905533478        3.48925884625770       -2.00447157015422
C            3.78537186225933        5.97208221425023       -1.86024125606778
C            3.29404991050525        7.22989683651653       -3.64492347503571
H            2.80399294797650        8.02064812836084       -4.18539149972658
C            4.18425759364415        6.29757824607614       -4.04649350804854
H            4.60783913132812        6.10123264415580       -5.01488411166766
C            2.11979999702701        7.76604815147661       -1.51739051951808
H            1.53500366537081        7.06074253042350       -0.91981766772747
H            2.65327002108732        8.45750000076427       -0.86433439019019
H            1.46431947163139        8.32432432854849       -2.18349517029073
C            5.28662328091414        4.38283768207090       -2.94827858906739
C            6.28074171284514        4.21091605433326       -3.90462706350037
H            6.48951843931357        4.98187259206772       -4.63428396162949
C            7.00651343234601        3.03149874129692       -3.88702780782913
H            7.79280732269752        2.86143256981542       -4.61274276052265
C            6.70084880828351        2.07508096851565       -2.92845177312360
H            7.23137857217101        1.13219414091398       -2.89395154346944
C            5.70252844608547        2.34822979981992       -2.00856756125892
H            5.43182998685093        1.62132967484710       -1.24985742542217
