58
 energy: -87.049605150183 gnorm: 0.000161249199 xtb: 6.5.1 (579679a)
C            6.57742423650457        1.88208312830491        2.28306202426176
C            6.48965279228500        2.21413612399990        1.11996886880589
C            6.40010439686179        2.59174482683713       -0.24739219873648
C            7.41125356568765        2.20201946073772       -1.13473060366148
H            8.24767310084488        1.61739975668350       -0.76702578222503
C            7.34523943550695        2.56087298136796       -2.47034685740080
H            8.13302314489307        2.25499196469578       -3.15075292798843
C            6.27421154081450        3.31089299372174       -2.94137460152841
H            6.22456932123498        3.59055826665447       -3.98791599242267
C            5.26720123973327        3.70152370907255       -2.06739278940414
H            4.43063502369235        4.28714241533977       -2.43390088718366
C            5.32587573480274        3.34682249582532       -0.72934045136242
H            4.53936375561637        3.65238227982464       -0.04830750803961
C            8.13161550267924        0.14674731608613        5.52954653202862
C           10.11247427552450       -0.86606620005561        5.17821785543299
H           11.09120903984722       -1.00214748434703        4.75278870623693
C            9.41832048966260       -1.60342263490291        6.08812658444821
H            9.69461703777204       -2.48704568452913        6.63814460588720
C            9.27277103463660        1.16151011290208        3.86504479447804
C            9.78989490694094        0.77676288577747        2.55421943152673
C            9.41443791215931       -0.39003349108660        1.84239061266959
C            8.53540987825433       -1.37417916220822        2.36737683673198
H            8.13790046685640       -1.24940479327577        3.36444675199605
C            8.17202619871736       -2.47661050566300        1.64759134281707
H            7.49908379626324       -3.21014974084571        2.07879701849908
C            8.66181911113457       -2.67218355154682        0.33838944660997
H            8.35945094913760       -3.55156175205203       -0.21917222410717
C            9.50045795289642       -1.74970290958791       -0.21429339487700
H            9.87362042148885       -1.87777228517194       -1.22518057195976
C            9.89877818013538       -0.58992660792974        0.50778073108574
C           10.74451907851276        0.35326960731163       -0.07887193499563
H           11.11107378303277        0.18481527898341       -1.08648365560256
C           11.12128023244096        1.50923025374690        0.60494915264379
C           11.97929622097523        2.47822989825994        0.01388829871747
H           12.34991945554214        2.29573029555867       -0.98949818456167
C           12.32975838875831        3.60932688116680        0.69112245530942
H           12.98323381376852        4.34489528903327        0.23513327697898
C           11.83661750707571        3.83643436887630        1.99605106586997
H           12.11754149005708        4.74506152960783        2.51710778183811
C           11.01714497271015        2.92334730689212        2.59465235155928
H           10.63882128971725        3.09635853620729        3.59705942527945
C           10.62687520457636        1.73078788940583        1.92720323024691
C            7.13494886550704       -1.50479586858570        7.09503018749097
H            6.44753945208348       -0.68247727646717        7.31328311712892
H            7.57008947544682       -1.86295886461307        8.03332101176394
C            6.40175463085016       -2.65061622301244        6.38610298965535
H            7.13755368685008       -3.38937512295938        6.05355809241612
H            5.73988529734388       -3.13681614784476        7.10886988870406
C            5.58475171638491       -2.15603095159955        5.18977772476834
H            6.23158777258779       -1.57323949059800        4.52627117863842
H            4.78984945447413       -1.49014541958138        5.54198870604631
C            4.97582501416398       -3.31533410993322        4.40544279425695
H            4.39917402811733       -2.93305692124080        3.56304624429460
H            4.31406208064848       -3.90445809571267        5.04172346169195
H            5.75996941728088       -3.96901310753002        4.02091149723891
Au           7.18092642188430        1.14438312129456        4.00987819925527
N            9.29635794284651        0.17838019689424        4.85000027430257
N            8.19962886395857       -0.98811676820294        6.25551601651305
