85
 energy: -106.845063576526 gnorm: 0.000381961907 xtb: 6.5.1 (579679a)
Au          -1.26679829821873        6.27360871825857       13.18810090824078
Br          -3.50364734969085        5.75628643925366       13.81631297661657
C            1.31385770602345        5.61171818374198       11.03548158199236
H            2.23802220785086        5.91575439933474       10.52920896416064
C            1.52740881591787        4.21875657228545       11.64742771819260
H            0.62202202628199        3.91985558035482       12.18629374612097
H            2.34951482423913        4.25116389028074       12.36834072339186
C            1.83986419981870        3.18435899447691       10.56467582486207
H            2.78127821542165        3.44647001119826       10.06966529862151
H            1.96577979882265        2.20185403024967       11.02899508951629
C            0.71273106126558        3.13040883097740        9.53237747444732
H           -0.21122915400873        2.79591731807551       10.01609681265744
H            0.96265587104182        2.40953325060673        8.74853927345589
C            0.49549172092078        4.51177738901830        8.91317810294058
H            1.39363339326957        4.81350604817948        8.36319895036774
H           -0.33607899069838        4.47359055729486        8.20344544850117
C            0.18860588516444        5.55113556958522        9.99393320187206
H           -0.75311908208506        5.29839362627696       10.49282524437531
H            0.06238390979575        6.52893558485113        9.52155473203135
C            0.95719281264314        8.51376942086785       11.70496238354209
H            1.20020202832674        9.15318887292420       12.56514141618593
C            2.02977179591318        8.75930311750868       10.63616220709499
H            3.01401040457324        8.47331704513754       11.01574125780525
H            1.82161355626874        8.15720722338041        9.74648346934229
C            2.05736024355829       10.24184652699563       10.25049960879573
H            2.34135498158597       10.83910238986508       11.12371611557445
H            2.81355192512475       10.39890548199096        9.47556428958820
C            0.68959044293987       10.69780618709947        9.73924481558290
H            0.44235291631509       10.15458506477080        8.82070338764287
H            0.72313742566911       11.76471565626847        9.50014123440743
C           -0.38852959050780       10.43823151378415       10.79291661607822
H           -1.36746830716507       10.72966978362173       10.40150308457638
H           -0.18707134117994       11.04489479791674       11.68245678592376
C           -0.41574038188777        8.95900613906586       11.18107428859197
H           -0.70110845765120        8.35857434596607       10.31211775141996
H           -1.17020499035091        8.79618830878246       11.95562695640849
C            2.32064664619944        6.73681722166877       13.50084166155808
C            3.61741386338105        6.69390786557488       12.97594507496929
H            3.76579215336143        6.64104473125416       11.90390507391486
C            4.73192762654861        6.70755569859318       13.79828452288471
H            5.72374173413018        6.67434281962738       13.36194904956225
C            4.57334362385464        6.76386789637838       15.17571241191862
H            5.43998152871137        6.78051966591147       15.82670213764672
C            3.29803586254959        6.78727484883335       15.71511066256754
H            3.16505999521847        6.81755268504323       16.79107098227875
C            2.16765897281579        6.76866375192359       14.89622963859415
C            0.84435548286120        6.74907332272263       15.58129749074424
C            0.21221933510172        7.94631710228599       15.93830075947089
C           -0.96151819458393        7.90353172231834       16.68322584658368
H           -1.44405293147463        8.83253532043019       16.96536133325692
C           -1.51874851639452        6.69395910689001       17.08362983040792
C           -0.88103275890485        5.51318936335683       16.72313212767023
H           -1.30673146487557        4.56699912943825       17.03861618004749
C            0.29138926990678        5.52189425374794       15.97374675133315
C            0.81477385042250        9.28365300159840       15.55773731691935
H            1.60308131276513        9.11327514988267       14.81271844684387
C           -0.22862512715315       10.22010820525863       14.93682084674678
H           -0.78678868594063        9.69659427416137       14.16048437767746
H            0.26599777423078       11.08356420153373       14.49071195681887
H           -0.93518996684507       10.57855423769253       15.68559424738470
C            1.46392313945897        9.93294950963138       16.78709289771117
H            0.72080282616355       10.10843476418271       17.56553691962409
H            1.91712472440867       10.88627611278491       16.51365457211438
H            2.23902255084110        9.27919912008094       17.18828683910591
C           -2.78932916119314        6.65351980441695       17.90344363807182
H           -3.05604701880762        5.60164056374036       18.07453473910968
C           -3.94565639221315        7.32094530446726       17.15007857358662
H           -3.75782806607831        8.38636222627740       17.01167479250011
H           -4.87423809056455        7.20096391417590       17.70891660722669
H           -4.06082633314896        6.85792260631428       16.16828863187075
C           -2.56752255234693        7.31522530984785       19.27002411627063
H           -2.32373112819627        8.37194344396504       19.15455557914759
H           -1.74665120679812        6.82504541549587       19.79471236004728
H           -3.46973816829693        7.23158755570846       19.87664170576288
C            0.97663892920288        4.21589529810170       15.62479256607106
H            1.73862773319117        4.41352434344330       14.85969853369152
C            1.68631490901418        3.65465154237859       16.86424041449303
H            2.42168991813397        4.37188616220899       17.23038560741633
H            2.19870640517298        2.72490275841151       16.61527082497836
H            0.96804444081883        3.45695638481693       17.66056245816642
C           -0.00395542313280        3.18811921230743       15.05028118740989
H            0.54515153732065        2.32833670448197       14.66499297297904
H           -0.57314233360568        3.63330450188470       14.23366909067352
H           -0.70467844364840        2.83744004850830       15.80798251008978
P            0.85087359308428        6.78253494601707       12.40504539313758
