64
 energy: -119.146655789475 gnorm: 0.000163305282 xtb: 6.5.1 (579679a)
Au          -0.41445797665826       -4.25881785996330        7.45924405742069
C           -0.07066850975813       -0.23842497364505        9.36721177242621
C           -1.01680245873697        0.23015168874899       10.28339067642476
H           -1.85529515841567       -0.39707682709425       10.55945957595647
C           -0.86877974579886        1.49007127117255       10.82331276033188
H           -1.58783413613984        1.87778817731373       11.53420054767334
C            0.21853223756619        2.29614271486766       10.45947834457881
C            1.16193080252575        1.81864630336478        9.54557129654888
H            2.01021229156698        2.42391825633722        9.25405543445773
C            1.01616897887625        0.55439901059668        9.00097692970904
H            1.74152818438282        0.17630411394757        8.29091083546154
C            1.32059960604479        4.42843570519448       10.73231860730092
H            1.33517470019318        4.64009478503633        9.65328355710739
H            2.29249626989313        4.00219762653548       11.02095721561722
C            1.03880597931003        5.70420505692147       11.52244740249673
H            0.99712100253837        5.45885343491431       12.58744380833729
H            0.05862622310968        6.09100658411508       11.22943643339432
C            2.12171018307611        6.75319005818656       11.26242109793828
H            3.09433009961194        6.34656735728470       11.55890114564734
H            2.16772652992262        6.97131374449490       10.18971236688320
C            1.83798273043020        8.04863323462060       12.03104385067897
H            1.81651108973859        7.84212293403808       13.10636955893216
H            0.84792013934942        8.41894971521410       11.74664387671062
C            2.87265353199727        9.13865390267609       11.73431736363863
H            3.01685638443125        9.22949446140839       10.65336434619080
H            2.49933503261974       10.09967100555245       12.09990239847912
C            4.22720432256619        8.85674026619201       12.39921712142960
H            4.12906261221262        8.87333404381799       13.48893340546907
H            4.61159444356014        7.87581900150103       12.10441333452141
C            5.92909242619028        9.82540972888213       10.83450567663336
C            6.04679467658148        8.81071705460299        9.88933384792764
H            5.50741847557337        7.87574698460405        9.98723912042282
C            6.88141240977235        9.03683429567468        8.80650243916510
H            6.99228145889468        8.26584615549184        8.05166302428014
C            7.58332002901142       10.23710660562275        8.66470775700752
H            8.22678388920520       10.37447181116099        7.80293800048786
C            7.46692676527676       11.24817971364810        9.60413923164533
H            8.01296118629246       12.17752196259331        9.48761975286503
C            6.63224336637043       11.04732058878549       10.70082033171599
C            6.26622186502917       11.85838528600493       11.83239328276961
C            6.61287977735625       13.14253027426208       12.24562672306219
H            7.30794159682720       13.74069431367983       11.66723874697135
C            6.04969245508509       13.63954200425924       13.40914221729531
H            6.30513595555815       14.63760206492149       13.74707322192264
C            5.15180558295980       12.87491567901637       14.15930728827541
H            4.72659696150264       13.29442346012798       15.06459968197909
C            4.79263458738066       11.59395799658725       13.77182381067431
H            4.09515421396527       11.01139411773069       14.36205803054400
C            5.35722686594444       11.09305512353316       12.60280143288879
C           -0.33317359286792       -2.54945238712657        8.35633679534235
C           -0.44793488455305       -6.02474714395618        6.46785482538757
C           -1.13712147191289       -7.13033948830117        6.93785254718925
C           -1.16907189001073       -8.34974934745387        6.27472304615762
C           -0.47974875890251       -8.48567159877836        5.07576847870614
C            0.22527196573219       -7.40181254825058        4.56646196504315
C            0.22431228856525       -6.20533959699923        5.27044992580430
F           -1.80658744144668       -7.01944791686756        8.09038494287526
F           -1.84815373318354       -9.38393400207379        6.77163002716960
F           -0.49439948021873       -9.64359488945302        4.42118535225680
F            0.88995219717933       -7.52191646212395        3.41687288280431
F            0.90904751084692       -5.17307310620564        4.76486491954882
N           -0.21086847291377       -1.48690789166845        8.82016817787469
N            5.19269954329687        9.86135474584417       12.00147835624832
O            0.27310628558969        3.51129161887095       11.03829501728975
