38
 energy: -52.657104563513 gnorm: 0.000263872488 xtb: 6.5.1 (579679a)
Au           0.66155505569912        3.07038604351233        2.39454515318587
I           -1.05894538853833        1.36423840005950        1.36401563342817
N            2.40219815773116        2.36926706099063        1.29532342133555
N           -0.55288604424069        5.13106248376195        4.29829876127013
C            2.07182894053731        4.29890809418496        3.18104444636878
C            3.28047228067056        4.30654227410484        2.48701664576712
C            4.35947308822562        5.05358749758507        2.94334184956089
C            4.23350933545504        5.80356508941205        4.10378965647664
C            3.03498417589596        5.80860619922737        4.80088918548307
C            1.95794040713580        5.05324765171007        4.34138277900156
C            3.34158680178543        3.51756797249998        1.21361557196664
C            2.16837988697321        1.84727677806365       -0.06679396170555
C            3.03280969186836        1.29987732863732        2.09890757235859
C            0.68249130041510        5.04125663932279        5.14371188275151
C           -0.44392507981816        6.25281383849951        3.33334980315236
C           -1.70643299212932        5.40164219231777        5.20219010020130
C           -0.82261791821829        3.84531052645711        3.58861682778686
H            5.29395463991086        5.05095344861491        2.39408259259349
H            5.07055761456868        6.38806499805570        4.46607748268672
H            2.93616969453992        6.39401916836498        5.70848191722221
H            3.01499909678374        4.15091574283235        0.38310427337106
H            4.35077948708760        3.15487120223621        0.99413729267458
H            3.11011145328572        1.51897870919191       -0.50915804933300
H            1.72530321864798        2.63328349981035       -0.67546529268559
H            1.47006152718005        1.01382793485974       -0.00028310297067
H            2.32895716245582        0.47665885818725        2.19837695117785
H            3.27380794081180        1.69599794417362        3.08271794334369
H            3.94322569578373        0.94934747991849        1.60936232199625
H            0.59721850114292        4.11690967845112        5.72291819879605
H            0.66331342752682        5.88644167767970        5.83664157286133
H            0.36054809407383        6.03910570134505        2.63483768748220
H           -0.23029465005560        7.17103845416683        3.87765830826874
H           -1.38558288440805        6.34555132149164        2.79604923279065
H           -1.56271077912370        6.36449175455767        5.68958491840508
H           -1.76192560795981        4.61109263568886        5.94729426099304
H           -2.61918030965732        5.41675142227335        4.61030102916223
H           -1.72266707215353        3.99847011141571        3.00111341403190
H           -1.05986794988849        3.11347218633756        4.35652171874304
