61
 energy: -88.049769406146 gnorm: 0.000521994099 xtb: 6.5.1 (579679a)
Au          12.31377033995042        0.76442411032815       10.50928820134959
N           11.23876479736705        3.38244016622342       11.62614557017167
C            9.80017278360266        3.05294913010084       11.53438995706422
Br          12.31358588157967       -1.32607052545152        9.25723821375925
Br          12.31725633939321       -0.42932260359346       12.68827061065992
N           13.39115899739373        3.38226469451810       11.62358053305897
C            9.30739723052754        3.49093850401619       10.14680731115069
H            9.49383019762037        4.56054061016319       10.01058992712868
H            9.87033192845072        2.95303773022446        9.37681389587706
C            7.80706919090451        3.19871343481824       10.03088008877726
H            7.45733667670121        3.51068737012519        9.03932212933517
Br          12.31363040768355        2.12300700225012        8.42781380993047
C            7.04734319519628        3.98105029166112       11.10974437720406
H            7.21719790092402        5.05494571725217       10.98245666861916
H            5.97289710696296        3.79712538457426       11.01527484862482
C            7.52966377089590        3.53652070657475       12.49650171070548
H            6.99544354907506        4.10497226449573       13.26797812711767
C            7.26412230894565        2.04097145145172       12.68330197455721
H            7.59202709053271        1.72322094829955       13.67781704568908
H            6.19271034665911        1.83645683865860       12.59853281799372
C            8.03421572860233        1.27238471163618       11.60716641306513
H            7.87217849142849        0.19572061941066       11.73682700886978
C            7.55391000121875        1.69816112346378       10.21493009378961
H            6.48620500822390        1.48508507604565       10.10669561513441
H            8.09073678538324        1.13234830725189        9.44760448403014
C            9.03187503258403        3.81903898963752       12.62838212199416
H            9.18477376138789        4.89642717162519       12.53664683125445
H            9.39316039096128        3.50813328835324       13.61310255152539
C            9.53300426095628        1.56043777292021       11.73139763098667
H           10.05073328951256        0.98747460412181       10.96258969934337
H            9.91601237262208        1.23129844975442       12.70061357117687
C           12.31475261902983        2.58309525036708       11.45971451220487
C           11.64133421298675        4.68201207307067       11.83111579044802
H           10.96149688645226        5.50562488931319       11.94803322329202
C           12.98917750797778        4.68193353649568       11.82953553789759
H           13.66932604471350        5.50552804051109       11.94439423428539
C           14.82977150893648        3.05322604580542       11.53021717566548
C           15.09888466217039        1.56032847533233       11.72188182288648
H           14.58220484686689        0.98937640117989       10.95084194163039
H           14.71632461608873        1.22700918687439       12.68982185426835
C           16.59821439382620        1.27491750875338       11.59689450493567
H           16.76166132925479        0.19805895013429       11.72309759842632
C           17.36758864454410        2.04099658320351       12.67533966105025
H           18.43923297615702        1.83822331716840       12.58942774638896
H           17.04058796406908        1.71958069083085       13.66897923366360
C           17.09980579163305        3.53674821625045       12.49357938867477
H           17.63343154775274        4.10344653157473       13.26674409081040
C           17.58043896337935        3.98709160619011       11.10810648135440
H           18.65529313712325        3.80659706972599       11.01260959716774
H           17.40743293839057        5.06088361953799       10.98455819972426
C           16.82244396404412        3.20648668639180       10.02681624036978
H           17.17161349603371        3.52217894245187        9.03623555683123
C           17.07853663573193        1.70590063903799       10.20629622764478
H           18.14676012772405        1.49553405560350       10.09840078289652
H           16.54369443611907        1.14135109528624        9.43676392096492
C           15.59725376463656        3.81609808164999       12.62699429496772
H           15.23675561711865        3.50006735072779       13.61034498096534
H           15.44222572937327        4.89354385710316       12.54021491839170
C           15.32162059797006        3.49547367913291       10.14365897103283
H           14.75962474760593        2.95789649250001        9.37277475152495
H           15.13299512904182        4.56490778688436       10.00950291969101
