45
 energy: -58.720058310350 gnorm: 0.000101203392 xtb: 6.5.1 (579679a)
Au           8.09772749030937        5.14355503299615       19.58029758642009
S            6.47108389543831        5.20296305828875       22.36589707066017
N           11.00151325539642        4.85536604558832       19.01110829989337
N            9.76252749734096        4.72395198273935       17.12753870677478
H           10.62311038231961        4.57889270773500       16.61847368116738
O            5.26019894470810        5.34120212997201       23.15493463307063
C            6.28972018594854        5.38702813381575       20.64746478207564
H            5.85701672133626        6.37346256427268       20.50623785588825
H            5.54392920432851        4.65272882839249       20.35611282095665
C            7.16516206177240        3.59091923952167       22.71672808835848
H            7.26231061946950        3.49804521567171       23.79472378343679
H            8.12687926252351        3.49610929594760       22.22485142132438
H            6.46277359733519        2.85273454833663       22.33903491489276
C            7.65017548512210        6.40813341593299       22.96679064683978
H            7.74177173623026        6.27647647354805       24.04120665422590
H            7.24279557305345        7.39051230505144       22.74335513322167
H            8.60267376013035        6.26237489403779       22.46938165632295
C            9.80380264639266        4.89653445509384       18.44114816387114
C           11.14626499730515        5.05741384127806       20.44929273811758
H           12.07359214744554        5.60606091469482       20.63607835777282
H           10.30712906297996        5.66932920924666       20.79254838066746
C           11.15129003679006        3.72177505319897       21.18586541752100
H           11.24805275420753        3.89351785762670       22.25715232046383
H           11.98207187883483        3.10072049680933       20.85388062429094
H           10.22004248651981        3.18794302663360       20.99369909125112
C           12.26104276061800        4.61627093544371       18.29115230671980
H           12.10586602727005        3.83677248167698       17.53892106859203
H           12.98955168782059        4.23909380988784       19.01310750556766
C           12.77492448104049        5.90415085410448       17.65339475907566
H           13.71210920548416        5.70259845187578       17.13642705910634
H           12.95052789934424        6.65959285940263       18.41841671273998
H           12.05510271247422        6.29713235580036       16.93625071410262
C            8.57817171715611        4.74070089078976       16.25577415371207
C            7.64118753106354        3.59018761944757       16.62793042765964
H            8.17723061407282        2.64272363151493       16.59075528625987
H            6.80490320152337        3.55447777963036       15.93137711117753
H            7.24470987019672        3.72522604906236       17.63419539318870
C            7.87604692134032        6.09599267147632       16.35649443155151
H            8.57998095473180        6.89948178444437       16.14375546082387
H            7.46723894798008        6.24799927034278       17.35522539979484
H            7.05675611960765        6.14095953499787       15.64057445537677
C            9.09853516312761        4.53791795531401       14.82911529044718
H            9.78234288891748        5.34142293735039       14.55558541882947
H            8.26520736789193        4.53820685428742       14.12825397667747
H            9.62154824509970        3.58524054672101       14.74599023910923
