93
 energy: -119.519141847221 gnorm: 0.000264962783 xtb: 6.5.1 (579679a)
Au           1.22840122708864        8.61680151082852        3.82000459367761
Cl           1.97073123789595       10.49723947649262        2.84984211022934
P            0.42615271216718        6.67846269825577        4.69338766045264
O            1.24371542251296        6.25415580062797        5.97893022097205
O            0.44662139039408        5.44535599867211        3.64888982469834
O           -1.09508281733234        6.64839230665141        5.19602189846511
C            1.30235349280419        5.51500755013409        7.20351382457984
H            2.23591235682628        5.82251359195726        7.69818663402706
C            0.08884148924108        5.84268545604758        8.08871929054529
H           -0.80748123136976        5.52102730478933        7.54147150659561
C            0.19193804405668        5.00899094728140        9.37342470616839
H            1.09960402894747        5.27549767852631        9.92477483678845
H           -0.66525563226969        5.21792942006030       10.01912923645874
C            0.22485928048475        3.51387208106544        9.04910953753375
H           -0.70379232486238        3.22512849039179        8.54510598863084
H            0.29356558804552        2.94224468509309        9.97947689193396
C            1.42316563499023        3.18306480680649        8.15191125252119
H            2.34628641013317        3.44085214280833        8.69090114769134
C            1.35358631927810        4.02280271066429        6.87259981736758
H            2.23044607245672        3.82729575656656        6.24871015424218
H            0.46313603725270        3.75735465121208        6.29437327056392
C           -0.05457391714334        7.35856866407414        8.34581747288358
H            0.04446522256751        7.86113280459786        7.37490880275720
C           -1.45133819171175        7.68683970257266        8.88308884888528
H           -2.21650832406272        7.29827501396281        8.20975383307263
H           -1.57475448359676        8.76775890398652        8.95789963325236
H           -1.60806695863389        7.25496254294505        9.87247408068741
C            1.02000742210868        7.92934258850260        9.27555443979420
H            0.90875338722123        7.54931858182551       10.29173077019596
H            0.93220142587363        9.01583598052846        9.30781655406650
H            2.01887123361651        7.67991485904712        8.91683012519851
C            1.45867129501269        1.69129826445353        7.81211547708938
H            1.52882149229752        1.09820397077817        8.72438286559383
H            2.32223146816495        1.46737891501343        7.18497984975690
H            0.55477653238762        1.39912996533840        7.27571725202230
C            1.24910426132257        4.94411750298174        2.58684253635555
H            0.73303557109855        4.04492839058330        2.21511057302158
C            2.62575970848893        4.55662160248288        3.13296839131362
H            2.49631836811325        3.82037305811653        3.93132990266934
H            3.09565997645331        5.44451165341281        3.56826534265025
C            3.51218938457551        3.97899527133518        2.02543226632544
H            3.03582905807662        3.06747007125713        1.63622440579895
C            3.63476555018135        4.99322284478914        0.88246171862673
H            4.14854283257690        5.89163230037710        1.24052660324310
H            4.23317433966951        4.56431175501259        0.07331435912380
C            2.25279276227384        5.37128174329088        0.34577012852621
H            1.76737871313793        4.47802048831221       -0.06121879903691
H            2.36858147663825        6.09012378273424       -0.46943795812809
C            1.38719143320558        5.97966963100636        1.45618216671516
H            1.92534674619087        6.84230443467017        1.87557340967472
C            0.02342238481129        6.50455361628519        0.96234096551272
H           -0.54255838702135        6.80414834454609        1.85463057522381
C            0.19490995457999        7.75962056534374        0.10171102054769
H            0.70729597858271        7.53282063281512       -0.83371342558021
H            0.76999910710129        8.51256040218575        0.64093757623482
H           -0.78307458175770        8.17942893468118       -0.13607895795408
C           -0.80533379367947        5.45512687533002        0.21640686394498
H           -1.79724122700494        5.85815659001165        0.00754200479576
H           -0.92525894176353        4.55245009328916        0.81611636976822
H           -0.34149087196778        5.18455001484887       -0.73268535955895
C            4.89020664609837        3.60978050088158        2.57934279740775
H            5.39187549741683        4.49301407061213        2.97698401834393
H            5.51091458302753        3.18268145128813        1.79119519912356
H            4.79165808147784        2.87608840310038        3.38010139392548
C           -2.42808455463058        6.78622256465295        4.70761126047046
H           -3.07366509954325        6.79710197621650        5.59954411278225
C           -2.76509071663660        5.56640245612517        3.84608255713033
H           -2.67252985153239        4.66588598506781        4.45972591688162
H           -2.03601377226309        5.49269792416415        3.03536406810697
C           -4.17491511752334        5.66751175682822        3.25822933771849
H           -4.90278807895123        5.69365468517451        4.08192759311192
C           -4.29811751990372        6.96608582493989        2.45393943874301
H           -5.30968833679694        7.05392903713327        2.04663525539305
H           -3.59742889278545        6.94679845468840        1.61198123908473
C           -4.00398741997098        8.17383827721799        3.34443237273698
H           -4.73918042129934        8.20541645586610        4.15506919903054
H           -4.11343136259979        9.08978233941452        2.75780322477576
C           -2.58533440520353        8.10022163879384        3.92385967820913
H           -1.87229092550519        8.06019999470417        3.08778630736483
C           -2.21473616628659        9.33323476939052        4.77754160829669
H           -1.25609911316297        9.10923702658111        5.26482676528171
C           -1.99699460654085       10.56360995768244        3.89194119010338
H           -1.25948114194200       10.34796288647180        3.11872677368296
H           -1.62814875219664       11.39288711488077        4.49573135286397
H           -2.92511692796592       10.87477544815174        3.41121566448268
C           -3.23149034367977        9.64813874961634        5.87845275887782
H           -4.17043621358705       10.01020015851147        5.45822502161814
H           -2.83009395360635       10.42448242645553        6.53061462715546
H           -3.43914824667571        8.76735428063224        6.48665872324700
C           -4.47443575509063        4.45024220759284        2.38039191677707
H           -3.76889034295865        4.39562153904168        1.54988613793879
H           -5.48424806046615        4.51678586882232        1.97445893007518
H           -4.39409069692044        3.53311740011568        2.96470646535174
