23
 energy: -43.869487971032 gnorm: 0.000086314449 xtb: 6.5.1 (579679a)
Au           3.86998380716371       -0.30492906667324       12.12141967274863
Cl           2.92489244713184       -1.14530117164823       13.96664599050034
Cl           5.57464163305419       -1.73826493416009       12.33014397780507
N            2.41117724349765        1.04366079499341       11.79829665028923
N            4.59120855967097        0.55560786002186       10.45102128713682
C            1.32519639824156        1.21244752843998       12.55556961383511
H            1.23358771428489        0.55889581745218       13.41494068010024
C            0.36831196287263        2.16584083381097       12.26451792145009
H           -0.49700690684639        2.26711889845153       12.90697396470602
C            0.54087171908049        2.97395789428666       11.15087592487785
H           -0.18855667421868        3.73206734158025       10.89269268989351
C            1.67075534688477        2.79249937759664       10.36933984490396
H            1.83037205321034        3.40934548802806        9.49441129063199
C            2.60095769778526        1.81629876598014       10.70973329559467
C            3.81763162024331        1.54335088951351        9.95719196890880
C            4.19684826237616        2.22456889625786        8.80556498386119
H            3.57068135095036        3.01640830265575        8.41520882339545
C            5.37574752819288        1.88832652496580        8.15941480060931
H            5.67826572828255        2.41382765013839        7.26176269217653
C            6.15348233267009        0.86871170873712        8.68717810558467
H            7.08265249373291        0.56791419887237        8.22033277910253
C            5.72800632208129        0.22629518470471        9.83414754540435
H            6.30219135965488       -0.57554878400831       10.28291549648478
