53
 energy: -88.567760527739 gnorm: 0.000314687754 xtb: 6.5.1 (579679a)
Au           4.20719241558736        2.87964677624434       11.83636661045934
C            3.19808762298282        1.53672342292887       10.70051010809602
N            2.93452287659766        0.29980010646122       11.15464488646445
C            2.33507870277779       -0.46247055310957       10.18674857164929
H            2.04006892429766       -1.48308399656147       10.35640598183675
C            2.22161373913014        0.33527841010600        9.09690526044418
H            1.81251491558549        0.14232099717683        8.12060581451655
N            2.75893473193038        1.54978695381957        9.43554150217377
C            2.91822232614424        2.64678791240769        8.49590081742309
H            2.61829742952818        3.57950843738250        8.97106063980250
H            2.29684169409615        2.45873918663895        7.62254353126856
H            3.96846615446252        2.71578471090875        8.20524340956297
C            3.36579227946758       -0.17000624000798       12.45634239984317
H            2.85321014900589        0.40173440640089       13.24246688724966
H            3.16339216105692       -1.23791575808029       12.54925403319825
C            5.34833405067286        1.26820371521308       12.29788891978707
N            4.79351107843420        0.06762725206669       12.53557394735577
C            5.75491842833789       -0.88959511954364       12.72698291844317
H            5.51290096030494       -1.91684953178674       12.93588516165350
C            6.94636868592388       -0.25479895464298       12.60652863776414
H            7.95392418293393       -0.62468459501814       12.68248309068869
N            6.67063244777761        1.06128236735266       12.34137531759595
C            7.69219013311112        2.05055735379203       12.04228987422254
H            7.68970527852728        2.25024645255167       10.96879361223469
H            8.66139267658315        1.66430686261443       12.35167828487563
H            7.47250785113315        2.97359383361762       12.57661270297716
C            3.06499747821736        4.49067519936515       11.37557543506632
N            3.61855396859432        5.69229100455873       11.14030903867183
C            2.65619975311265        6.64849721868009       10.94866242592333
H            2.89717773890220        7.67636745175571       10.74159733868123
C            1.46540902111022        6.01200932223986       11.06661179411457
H            0.45748691019602        6.38068513449456       10.98959088545837
N            1.74248109201406        4.69594059742346       11.33035981649956
C            0.72160620746419        3.70526592085861       11.62689498131850
H            0.94441089990913        2.78226951992644       11.09399877482066
H           -0.24720822142809        4.08958358416513       11.31408238915741
H            0.72093730606010        3.50632104599586       12.70045939826810
C            5.04591138261943        5.93159283934011       11.22061817775220
H            5.24695258872304        6.99993679216992       11.12963320701155
H            5.55950427603952        5.36188231150318       10.43368047080779
C            5.21570576958626        4.22203348573439       12.97353364436867
N            5.47747394433318        5.46011833805737       12.52158630811335
C            6.07675021141713        6.22127118191679       13.49045215181257
H            6.37029996165765        7.24259633300161       13.32255845140476
C            6.19188497249313        5.42163122082282       14.57872644024012
H            6.60149022055857        5.61324576452113       15.55508303861010
N            5.65583977276744        4.20711756183242       14.23815759888459
C            5.49847238853927        3.10845283670707       15.17611055413450
H            4.44905443346483        3.03950142290022       15.46955919213393
H            6.12241446138130        3.29433645713451       16.04806364134018
H            5.79651175108697        2.17652261054471       14.69841051177041
Cl           5.97598045632356        3.34813699006321        9.53261270432011
Cl           2.43737935846504        2.41619344535307       14.14153870772778
