25
 energy: -60.365564471236 gnorm: 0.000382695569 xtb: 6.5.1 (579679a)
Au          -1.79103762822664        3.66425097346019       13.02033622981828
S            0.47469428470673        3.53968154847429       12.46762956992184
S           -1.35424250924191        5.29036775651964       14.63845663741270
S            2.78104289351975        5.12092854529496       13.69009893766329
S            3.57093530013719        7.21414432391609       15.72703070004511
S           -2.23508012767976        2.03926393168042       11.40077130020218
S           -4.05569185582843        3.79498338340903       13.57382681868583
S           -6.36639967170547        2.22625235607670       12.35468729279932
S           -7.12939047831483        0.10830397179792       10.27600522212033
C            1.09324988369258        4.70380036456335       13.56922414809036
C            0.35934831113806        5.42855878520436       14.46361325279338
N            1.09200116620405        6.30009135592327       15.23763717081666
C            2.34972445212966        6.24351618870627       14.94356995738008
C            2.46203528393538        8.09264677838349       16.86169391991924
H            1.70142378150394        8.63641190185830       16.30386791723484
H            3.06972751863613        8.78872378392202       17.43592225905947
H            1.96892536376907        7.39052175359966       17.53201386935208
C           -4.67787812101731        2.63378586201782       12.47251768803125
C           -3.94947446477391        1.90541341426363       11.57593744781221
N           -4.68684066605430        1.03894354045538       10.80252160040240
C           -5.94334840081941        1.09915553454514       11.09536496119857
C           -8.63824780337403        0.67350911885716       11.10246424435073
H           -8.59710556379600        0.47288588381182       12.17265588413050
H           -9.46374235622856        0.11819394942989       10.66180425057836
H           -8.79432859231431        1.74036499383156       10.94524872018494
