35
 energy: -56.871142146958 gnorm: 0.000320493889 xtb: 6.5.1 (579679a)
Au          -1.21630238275727        8.75658202115877        3.51924575287896
O           -1.31195374965536        7.66058637890437        1.71669532095624
O           -3.36489431148791        8.40483940977844        1.97450044949251
N           -1.86703452258432        7.15472796351692        4.69172974286279
C           -1.15741956754401        9.63395381670141        5.31459713693823
C           -1.58748766671090        8.79472299522498        6.35725908554078
C           -1.62095587481412        9.27353175028625        7.67031344229484
H           -1.94937077924272        8.63160863735227        8.48043367858809
C           -1.23707163063689       10.57150074261694        7.95165021298780
H           -1.26740714324797       10.93301103635379        8.97390717557993
C           -0.81416397128815       11.41625648237602        6.92689508888678
C           -0.78080523880934       10.93287135284739        5.62068090159179
H           -0.45054949472822       11.59935592435530        4.83234965556456
C           -0.40543813746958       12.82944943630481        7.23512340194790
H           -0.07061611020162       13.34631720414497        6.33614784578590
H            0.40465247649715       12.83869038632341        7.96650372417201
H           -1.24677281536234       13.37986321780074        7.66044275702777
C           -1.98641882358822        7.44224055540017        5.99878486015924
C           -2.46411888434231        6.47537835794911        6.88372468514683
H           -2.56371116890297        6.70420836987805        7.93719856523667
C           -2.81511516504900        5.22454293304052        6.41029183515389
H           -3.18957054894062        4.46641557976608        7.08865218090013
C           -2.68063284302104        4.95714241430220        5.05368171608235
H           -2.94495564548959        3.99151369612098        4.64221568071268
C           -2.20214478633710        5.95557264148593        4.22718776599996
H           -2.07704436069195        5.80213440480456        3.16288316990510
C           -0.54354492314870       10.37743343439867        2.47427097685327
H           -0.43406777932395       10.11956426653461        1.42640126334954
H            0.41848038978497       10.72433699377314        2.83860549192317
H           -1.24554973311198       11.20249034794237        2.54466884995332
C           -2.52103389171319        7.78606900860293        1.33128305659262
C           -2.87191931550939        7.12526877728611        0.01208489050670
H           -2.56647014118262        7.79501571221962       -0.79051606469174
H           -3.94484950158871        6.96016864174054       -0.04622039685406
H           -2.33164195897860        6.18693510906419       -0.08947390000550
