104
 energy: -154.504514398292 gnorm: 0.000204608334 xtb: 6.5.1 (579679a)
Au           2.97946632117057        3.69460284949398        3.11244902865371
P            2.47409354826942        3.77553262278681        0.71389311804247
P            1.93800624376970        2.01150681466546        4.53044764728212
P            3.28383647777776        5.90629542574342        4.11947148469933
Cl           5.43189839451491        2.55595002971217        2.83800375983830
C            3.72358814377629        1.46135898061397       -0.09142935042244
C            3.81953346180536        0.19622382598243       -0.64726553743690
C            2.70592200310231       -0.39513397262025       -1.23140526400587
C            1.49655683967998        0.28553930092616       -1.25878245566504
C            1.39724185499496        1.55632753496566       -0.71090025038089
C            2.51140228076636        2.16059333779436       -0.12750535424786
C           -0.23731903716370        3.90918784663748        1.20964468406442
C           -1.52763780515831        4.40029284894573        1.10332130023544
C           -1.80907641031160        5.41940261467652        0.20181165491070
C           -0.79365687402786        5.93760458426267       -0.59016242096079
C            0.49766994573954        5.44072793815417       -0.48799108504912
C            0.79257197327286        4.41456512007661        0.41008467221510
C            3.68073857432338        4.57005134364164       -1.72927408969800
C            4.50269718166717        5.38242187440722       -2.49489196256359
C            5.18249599896039        6.44209525589397       -1.90850122391189
C            5.03984488925541        6.68708987931069       -0.54968782123746
C            4.22001488189770        5.87373085004653        0.21600109760611
C            3.52682639608055        4.80930379609790       -0.36122368612932
C            2.59215304063594       -0.10065188511794        2.86300493692104
C            2.52945245561085       -1.39760560555301        2.37734128569910
C            1.67132817599576       -2.31774295120484        2.96223753752780
C            0.88581521029337       -1.94147436636117        4.04492326349987
C            0.94850543718707       -0.64676284382894        4.53526426603517
C            1.79407355880911        0.29243848246413        3.93787709761118
C            2.00687620309496        1.62031698078581        7.35302227893475
C            2.68073303394880        1.47970823985444        8.55722084448077
C            4.06909818634459        1.48894449660941        8.58671918298422
C            4.78511866395321        1.63287112207976        7.40526408564421
C            4.11635091784016        1.78238005274703        6.20065651233446
C            2.71836935774576        1.78267015005745        6.16315979168901
C            0.04992344383877        3.64466859250993        5.73457892893070
C           -1.20379223754470        4.21200649206919        5.89478435069855
C           -2.29525182433201        3.69248077627515        5.20969476722029
C           -2.12329690809983        2.60269836237986        4.36740359787423
C           -0.86769005697329        2.03393538160905        4.20618479358060
C            0.23626139138287        2.53879783263336        4.89717185160091
C            3.49511742579693        5.18178912563099        6.77017687685503
C            3.20382964677409        5.19768435703919        8.12418571758332
C            2.28229612338953        6.10858336324236        8.62468985768481
C            1.66467301826493        7.00694699619139        7.76570866968101
C            1.95787173211609        6.99437400605859        6.40955120500506
C            2.87432428697277        6.07713159411306        5.89380318718730
C            0.72350689090297        6.62760312490772        3.39448073366035
C           -0.24957332203773        7.31565619244978        2.69030015293545
C            0.10942105894826        8.36827588358373        1.85732575278528
C            1.44380305089015        8.73014715944811        1.74231454540752
C            2.41848979030172        8.04902968616038        2.45792881739994
C            2.07185627213610        6.99221235028639        3.30010883986938
C            5.04299359179858        8.09071754074089        4.47922446781771
C            6.26882851641035        8.72567535126463        4.36197278906005
C            7.34155790413708        8.06789310812821        3.77195186559313
C            7.18795150879993        6.76947853106588        3.30795554405008
C            5.96274657918029        6.12925218948071        3.42174685651233
C            4.87516821424962        6.78800288290554        3.99875742650367
H            4.58895641988397        1.90989065455760        0.38513048921502
H            4.76450727493758       -0.33400963686665       -0.61874050490804
H            2.77948768429845       -1.38778567600325       -1.66135311721865
H            0.62372255182984       -0.17414335270870       -1.70944727522433
H            0.44754510373505        2.07904324470290       -0.73839761731438
H           -0.01778220324592        3.12766865812202        1.92976888252755
H           -2.31221454088789        3.99511675327305        1.73304155949464
H           -2.81617364624132        5.81256050713300        0.12212224033952
H           -1.00670990200979        6.73768625727361       -1.29042494844312
H            1.28207614059738        5.85775337159700       -1.10934344153738
H            3.15900322229671        3.74074028116599       -2.19400222489918
H            4.61551387427131        5.18579502452441       -3.55531931957823
H            5.82723504041046        7.07273497084763       -2.51020922380597
H            5.57298884758713        7.50812285025010       -0.08331412590168
H            4.11876463492866        6.06118859699492        1.27919555427887
H            3.26967142235710        0.61339775404113        2.40867011446876
H            3.15048023424532       -1.68767948609600        1.53726847370623
H            1.61674704747389       -3.33100489207168        2.58014425217912
H            0.22230214983981       -2.66160933048151        4.51104412499750
H            0.34025631966425       -0.36353130977289        5.38769151497257
H            0.92260065969656        1.60801507102275        7.34191308728629
H            2.11791086209380        1.36185790159058        9.47673616231433
H            4.59168186838682        1.38078774091193        9.53055682191001
H            5.86890799302400        1.63527265055210        7.42315934723842
H            4.68007960396302        1.90207943357752        5.28111354000827
H            0.89974077273103        4.06319578505244        6.26290176829629
H           -1.32835326892588        5.06573414693259        6.55173974077334
H           -3.27581612770195        4.13892079734626        5.32934255540749
H           -2.97111569066060        2.19310966912548        3.82940741778017
H           -0.74663950712529        1.18750787285415        3.53931425792552
H            4.20736598112814        4.46176863736505        6.38140520928240
H            3.68899074063887        4.49109279324037        8.78846644324789
H            2.04511818953288        6.11720093209823        9.68250659260840
H            0.94722594807636        7.72251241097298        8.15211830292004
H            1.46599223536297        7.70041283039808        5.75018209672469
H            0.43980550994167        5.78842885193610        4.02206718596533
H           -1.28933128027549        7.02059849315920        2.77805753423144
H           -0.64985926456027        8.89874189835263        1.29404429586658
H            1.73075004019797        9.54628919521101        1.08852059366827
H            3.45701068584453        8.34317301042070        2.35702245692663
H            4.21124908135248        8.60455895862189        4.94977034210625
H            6.38921744627708        9.73714054091665        4.73421979442794
H            8.29894855853380        8.56889827412262        3.68150168096307
H            8.02554175711686        6.24990718147247        2.85701613552146
H            5.85479390541976        5.10905622737101        3.06949060469975
