23
 energy: -43.767103467760 gnorm: 0.000130165511 xtb: 6.5.1 (579679a)
Au           6.19292611376515        5.12190330144315        5.90871910936618
Cl           6.40084299961313        5.10108878804015        8.13126731033385
Cl           3.90142790957329        4.97727982672118        6.05146116195011
Cl           8.45871687375828        5.26253296131017        5.64154944269111
N            5.54642394453918        5.12608071214877        2.91345021646864
C            5.90877025896234        5.13392325222835        4.01771251333047
C            5.05970935966041        5.10824445922645        1.63175240540820
C            3.66995536809102        5.15805431155861        1.45365670234496
C            3.18810784837211        5.13073762844616        0.15104231525138
H            2.11890635707837        5.16653830088950       -0.02300587235354
C            4.06221695275424        5.05815852661915       -0.92506437729511
H            3.66833247993927        5.03746655837424       -1.93464485840346
C            5.43547868383504        5.01240844319492       -0.72374182482592
H            6.10519838351990        4.95707792306780       -1.57412708294409
C            5.96042402886139        5.03619887870878        0.56159084301288
C            7.43707978072295        4.98684039680142        0.82307944524561
H            7.75164690412486        5.86934171611123        1.38270749769358
H            7.99434380447106        4.94533516035092       -0.11142807919176
H            7.68570619552317        4.10835327758046        1.42101349112025
C            2.75737137205687        5.25050171468287        2.63980647069587
H            2.99631834431260        4.47894663330693        3.37331099209710
H            1.71696667501020        5.14423875752469        2.33689587686016
H            2.88152936142978        6.21634847165246        3.13329630112886
