83
 energy: -106.680684071993 gnorm: 0.000148543913 xtb: 6.5.1 (579679a)
Au           4.63110699616835        1.87313350785274        3.74584822340664
N            5.24333151716389        4.73653905309404        2.81479353482929
N            6.90811985093070        3.81369414713610        3.77810851950638
C            3.81827888543450       -0.14893859849515        3.48621828270540
H            3.19192043741526       -0.11446070171442        2.60579223257649
C            3.45206393934518        0.31033684109929        4.73825168966524
H            2.49786245970631        0.75710306554355        4.98022852471687
C            4.23391105157591       -0.50107858415427        5.74088538177405
H            4.31528428577880       -0.08535035490296        6.74438408111489
C            4.82780946461693       -1.24733835991419        3.70844960242309
H            5.45144275308842       -1.51320129395552        2.85592990827845
C            5.53669418618958       -0.77436377058660        4.98198148056832
H            6.14738675347137       -1.54982794178368        5.44515184121010
H            6.14201954877275        0.12217277880562        4.82972980717384
C            3.56960273147569       -1.90261014095286        5.67250988117017
H            2.48728940918775       -1.83941066236915        5.79283629826193
H            3.97222979825036       -2.53861555329475        6.46257733090982
C            3.97710081729366       -2.41484457755430        4.27715573879272
H            3.11482852759093       -2.62789356334185        3.64391897277740
H            4.58965280445600       -3.31521059330636        4.34748452795898
C            5.63546526547455        3.60177699409028        3.41068530632783
C            6.25757261340383        5.65745500801970        2.80534787606136
H            6.13736889240658        6.63381279550873        2.36985626846002
C            7.31823530156720        5.06968035106959        3.41893916396494
H            8.31051687623776        5.42897592902105        3.62767098672353
C            3.93185585738781        4.93251512383463        2.27112637414613
C            3.69731240181307        4.56572839805994        0.94473254095221
C            2.40754765985737        4.73359198743330        0.44611469562363
H            2.18493212841606        4.45468707828308       -0.57689875769705
C            1.40155824864834        5.24897513153197        1.24824944936595
H            0.40323069558193        5.37251350975736        0.84519681890697
C            1.65980227210047        5.60028398255867        2.56390423585500
H            0.85870973524507        5.99190307247690        3.17936343601823
C            2.93557338848974        5.44823436041338        3.10198644445107
C            3.21598173331944        5.79676048673151        4.54888656833779
H            4.29452972336384        5.70951107415025        4.73254467143820
C            2.50010582629651        4.80050354178723        5.47029920988717
H            2.82462489898619        3.78264590798281        5.24163620530771
H            1.41955965181041        4.85542890657544        5.33930415344381
H            2.73928964610321        5.01550701003996        6.51159300047482
C            2.80055134750168        7.23694921094342        4.86837086416388
H            3.29687018922421        7.92806868500668        4.18725752944965
H            3.08934483336946        7.48406003976314        5.88973119205937
H            1.72291619697180        7.36658717354723        4.77338840247639
C            4.79275675803971        3.97209306072921        0.08375398919654
H            5.74435422311008        4.03445865184411        0.62709349075014
C            4.95134315541032        4.74370882467140       -1.23090046462810
H            5.12942645241829        5.79901761759789       -1.02487350452576
H            4.05938356597357        4.65449375768712       -1.85022581744379
H            5.79983883798737        4.34781673998999       -1.78853620855827
C            4.49872227277516        2.48983413772162       -0.18133381689648
H            4.41295185423665        1.95222588760246        0.76599094497044
H            5.30795104323612        2.04535846206411       -0.76041105058177
H            3.56554451167642        2.36961350630819       -0.73131312766446
C            7.69214814467711        2.82266837280605        4.45332132737593
C            8.42604638732083        1.91557172058146        3.68594412275272
C            9.13088757864849        0.92037552781768        4.35925945002687
H            9.70615840813946        0.19396093900728        3.79774762455131
C            9.09839573492740        0.84427523277903        5.74297984145975
H            9.64936303154575        0.06164482718201        6.25119273629977
C            8.36423160949742        1.75894337957478        6.48168435088563
H            8.34640060314619        1.68138239057824        7.56223543555686
C            7.64471676061680        2.76951384089689        5.84800462174393
C            6.81978068995764        3.75420284456868        6.64975628571351
H            6.41678731102367        4.51568429080132        5.96999799208363
C            7.67576404987501        4.46848065993855        7.70160122952482
H            8.52698665659969        4.95276830646377        7.22343029033905
H            8.04700175716611        3.76775605074593        8.44880761045098
H            7.07886412715892        5.22783032008489        8.20619573981362
C            5.63449345622016        3.03336000631310        7.30393359349037
H            5.01661151856065        2.56267137040826        6.53558998425707
H            5.01957808836391        3.74557005159103        7.85372105401977
H            5.97756683122720        2.26043816852113        7.99149333369853
C            8.43646491730228        1.98584098263548        2.17336691012677
H            7.90513083441277        2.89227719606388        1.85656206611058
C            9.86778011081572        2.06626010559478        1.63104738324965
H           10.38826364580562        2.91383585671309        2.07657941593670
H            9.84337089424298        2.19942660329560        0.54975535264375
H           10.42522307005110        1.15722939170498        1.85480761240255
C            7.69448616486078        0.77759294597784        1.58832257059202
H            7.67315928584080        0.84158766512244        0.50062361344514
H            6.66551546837945        0.76102960898641        1.95481884346805
H            8.17825858728415       -0.15558975875108        1.87635267733651
