62
 energy: -100.341079277838 gnorm: 0.000463327672 xtb: 6.5.1 (579679a)
Au           7.13545883198632        3.69427207167105        5.82966948998672
S            5.81110194640794        5.99570310644943        5.17687652986529
S            8.04462161090368        5.90908311192973        7.13494805651304
P            8.99123440782170        3.77110692463561        4.36804242495334
P            5.36924966380852        2.62420507961519        6.94808609783148
O            6.98478008591033        8.06745237011812        6.28627751737973
N            6.00547230143094        1.43506182883858        3.64795093233378
N           13.09681028673231        3.27859413279193        7.50506444246225
N            8.74934320757741        8.68410503926376        2.71274443278533
N            3.91178548400595       -2.38668744709339        7.21387231441383
N            1.31362161675503        4.06603092392873        4.04407795049419
N            5.44568015180444        4.80843835855089       11.65389761960171
C            6.93031874208001        6.74749039490172        6.18944121668600
C            6.15264540217109        8.91595109792942        5.48780311977372
C            6.93988124951419       10.17429016056396        5.16188851846350
C            9.08052389123990        2.78231665248171        2.77894510952824
C            7.71382536760746        2.62630038921498        2.09018406337553
C            6.75209661989374        1.95379361624867        2.94698034819641
C           10.60901943685678        3.29270756393408        5.14228023419084
C           10.76202002172329        3.90630155213453        6.54425096874925
C            9.39920948808959        5.49566820667948        3.82209807412060
C            8.33442572521566        6.12382466296834        2.90830005984559
C            8.56702888153252        7.55330090915620        2.77985506121961
C           12.06381046315562        3.56560102489040        7.09748504399996
C            5.14625533558589        0.78300262591308        6.85427414711621
C            3.84674380721254        0.20556000100323        7.44057092230552
C            3.86511651812590       -1.24580435185804        7.32099621293874
C            3.76870513221811        3.31723514905009        6.33245840295483
C            3.58467154854179        3.06735207842443        4.82722674121168
C            2.31918399706235        3.62502630054178        4.37550687805049
C            5.25569230529186        2.97082824657388        8.76647060765299
C            5.42947942159239        4.46828847398406        9.07530722668272
C            5.44016137460382        4.67702564051105       10.51437310234281
H            5.24566952798819        9.15062138075805        6.06039940892440
H            5.86037493189278        8.37846445541039        4.57493031025691
H            6.30910777418148       10.86533286836321        4.60427222053675
H            7.81156008697191        9.92122410174576        4.55890401182988
H            7.27405893772113       10.65505591359974        6.08044280004582
H            9.46367847553755        1.78568795898116        3.01394075391157
H            9.77453308671592        3.23797233177302        2.06817688125353
H            7.83396925838065        2.04271638998969        1.17159828743027
H            7.30656686441648        3.60338106964848        1.81432437171740
H           11.45353213795275        3.59701225323294        4.51707515370217
H           10.64890775965375        2.20351624455413        5.23187558936871
H            9.97769343497895        3.52555625831712        7.20495781287512
H           10.65617697398476        4.99522344738805        6.50729457180478
H           10.37416050072056        5.53686115154281        3.32750523874220
H            9.46914126670582        6.09917753571349        4.73369468056469
H            7.33515605676991        5.98292718229777        3.34625824215328
H            8.34879546371984        5.66269195570663        1.91666128955240
H            6.00036249152954        0.32276906258295        7.36020244722115
H            5.22147414398990        0.49722697432531        5.80100201590623
H            2.97569196845993        0.59333156835261        6.90504215046914
H            3.74333856836608        0.47269435989567        8.49622962958113
H            3.80048854007441        4.39952154771462        6.49355094925784
H            2.90766783846044        2.92880273506855        6.88258120277685
H            3.60539351245692        1.99723727695026        4.60148764068421
H            4.40213266934468        3.53894496842609        4.27376934171606
H            6.04932068196546        2.41368904275932        9.27290082684583
H            4.30421689008331        2.62826058497519        9.18343438217372
H            4.61402898081317        5.04965595712348        8.63485228982410
H            6.37052685190809        4.84481752667540        8.65033163085417
