25
 energy: -42.317271331337 gnorm: 0.000153062929 xtb: 6.5.1 (579679a)
Au           7.82946440952601        4.87063998402945        8.81655156871674
Se           5.97360390119089        4.78878886264051        7.27386494632848
Cl           9.52727831239061        4.90177096789745       10.28381700329296
C            5.44916915960620        6.62056719854365        7.24874343074822
C            5.00796430366570        7.21146879027638        6.07235769442892
C            4.57418652907761        8.52967072995585        6.07968863432177
C            4.56599011125679        9.25463537616442        7.26335079071550
C            4.99382172448219        8.65729142066642        8.44086366655231
C            5.43709576930602        7.34274407976516        8.43263594896708
C            6.96860391613003        4.70537023150962        5.64872424855935
C            6.94066139778839        3.51211598031841        4.94208384065270
C            7.67067646580870        3.38657911721459        3.76809104940750
C            8.42124403036368        4.45500782665236        3.29771027057074
C            8.44765878068122        5.64721392831400        4.00865181400338
C            7.72760154609427        5.77118412486405        5.18790398596631
H            5.00572780771855        6.64574220638291        5.14818434882499
H            4.23842554650430        8.98805328014661        5.15645833708013
H            4.22652903024477       10.28388052541556        7.26774351167049
H            4.99063832160787        9.21636104091575        9.36938608395990
H            5.77804820571882        6.87863211712567        9.34968610113206
H            6.35026298411733        2.68113146958460        5.30897156236685
H            7.64858171514030        2.45184498037745        3.21963436375712
H            8.98786191601902        4.35816858056386        2.37892670929682
H            9.03684028629072        6.48360176915486        3.65047086175855
H            7.75746382926606        6.69793541152011        5.74809922691917
