56
 energy: -85.831706172962 gnorm: 0.000103356836 xtb: 6.5.1 (579679a)
Au          -0.06443758960959        2.62737665810748        2.57068546401345
O            2.01504843485418        2.25492005641402        0.82560672447728
O            2.06570507000324        2.43906076371063       -1.29442821647239
N            1.49376596709200        2.17759378523086       -0.26633089314446
C           -0.71397022656546        1.86263433908460        0.76296925007551
C            0.11710479465619        1.73609596575540       -0.35140170456973
C           -0.30170648019290        1.21710107070337       -1.57560461039268
H            0.39808358958075        1.15657258654826       -2.40087655996764
C           -1.60583913422096        0.76908582472139       -1.71307685019737
H           -1.94500254165705        0.35366710043346       -2.65403095958805
C           -2.47115144877595        0.85560301414992       -0.63426781946900
H           -3.49422719721695        0.50689331174792       -0.71264953288905
O           -4.13587853614672        1.39093928441861        1.38868675578131
O           -2.54784578287023        1.53099238252184        2.79781572602335
N           -2.96325016171725        1.44293068597648        1.66193677015080
C           -2.01156760799719        1.38400149889540        0.57155796625627
P            0.63884165651772        3.41113053383993        4.63558489748398
C           -0.45477587090777        4.86271407294846        5.20061396249752
C           -0.40300508304864        5.20156423107771        6.69620951983240
H           -1.01067358908763        6.08944034784627        6.88253989450214
H            0.61318332869182        5.41313474234858        7.02312893698658
H           -0.80298208689271        4.39180746674562        7.30295799069520
C           -0.08587786930683        6.12871672634319        4.40846503304870
H           -0.84392779008133        6.89407892376937        4.58541005968483
H           -0.06076329222367        5.92330304872439        3.33847647123560
H            0.87155050993735        6.53882644165416        4.72138067070440
C           -1.91158029248318        4.54858639406203        4.80939626639028
H           -2.52478939013131        5.43747994445365        4.96767373088325
H           -2.34022703631617        3.74449542560548        5.39938036064922
H           -1.97492431191607        4.27384573550017        3.75687291813064
C            2.45634124703296        3.96678162398829        4.54838237682727
C            2.96263101204602        4.79438424228215        5.73714566264466
H            4.02945469806528        4.98810086203455        5.60848872883096
H            2.82668383015490        4.26696613091747        6.67924945928781
H            2.45544819814646        5.75531658369511        5.79924665166539
C            2.65577324912041        4.77861705853722        3.25395606940242
H            3.72098656961325        4.97275580344316        3.11747982715119
H            2.14814708839781        5.73846050312175        3.27640595997672
H            2.30249767967207        4.21665899092959        2.39059086068445
C            3.36420291416575        2.73506719256317        4.39127836916388
H            4.37341276443849        3.06728904976188        4.14126066083525
H            3.01292206990220        2.09707374055835        3.58092059635397
H            3.42882809339819        2.15665169220696        5.31006499143140
C            0.46116447845918        1.96873499261343        5.86220202246680
C            0.93785563171772        0.68407062614317        5.15793519315186
H            0.70756743744289       -0.17680848631910        5.78802920766785
H            2.00708002193672        0.67829393046854        4.96945974733714
H            0.41844919095327        0.55811275108339        4.20796906462414
C           -1.02633438442765        1.72788426529894        6.17159907470613
H           -1.12944392549992        0.77818350199347        6.69988859408533
H           -1.60978550551179        1.66475122552982        5.25400116255557
H           -1.43884920944222        2.50362508505349        6.81248377507147
C            1.21474823720733        2.11487417835118        7.19065157144337
H            0.97499806646623        1.26478757201479        7.83260328105402
H            0.92851813270469        3.02466371460987        7.71466396428964
H            2.29242238184607        2.12371080576325        7.03926090452344
