45
 energy: -66.314618876472 gnorm: 0.000122814142 xtb: 6.5.1 (579679a)
Au           3.88361912143857        1.77027037700349        5.47326995902623
As           3.47358865127751        0.22509378173535        3.75118720787053
Cl           4.27903648426896        3.22802339394984        7.14002691659524
C            4.98416345840265       -0.88175937519199        3.29045281782041
C            5.94850404068611       -1.13192552349240        4.26464616123691
H            5.85200219309821       -0.67427049106821        5.24335370890550
C            7.02958685935112       -1.95601245919275        3.99873791188873
H            7.76773021656652       -2.13780994630249        4.77247817346056
C            7.17381095460039       -2.54938376973831        2.74794229281160
C            6.21516063134507       -2.29452946223005        1.76924704408094
H            6.31431928502759       -2.74523612402626        0.78730617603074
C            5.13401122083607       -1.47197082756285        2.03652154723413
H            4.40382924209750       -1.28370623183456        1.25777391383796
C            2.11473914272576       -1.07795544705420        4.16562112677087
C            1.79845096515490       -2.11162591312356        3.28541755485065
H            2.31490716212162       -2.18933466576963        2.33503206398224
C            0.83027788624723       -3.04585933128735        3.61233445642378
H            0.59853986884521       -3.84262348143534        2.91339636737757
C            0.15642575207555       -2.97233965558204        4.82901823358561
C            0.47256001584522       -1.94183912075198        5.71111766320858
H           -0.04102864084782       -1.87037143170846        6.66386421535502
C            1.44062498193140       -1.00764244762568        5.38271813536782
H            1.67780558300558       -0.21220856386791        6.08059832527237
C            2.91236108991735        0.91796113238786        2.04402714832214
C            1.57616072799896        0.90566928689057        1.64980529072790
H            0.82893127907557        0.44770284384784        2.28772168251216
C            1.18979758535560        1.46954608783629        0.44480340877928
H            0.14480363326658        1.44560138079050        0.15422155699042
C            2.12799770046936        2.06823078111817       -0.39181214531464
C            3.46280307427645        2.09291285464673        0.00589282861450
H            4.20747407438959        2.55956699813622       -0.63013574324217
C            3.84844868033165        1.53055696473887        1.21061532569723
H            4.89127146850059        1.56441435108645        1.50684003527519
C            8.35112224734487       -3.43302879218951        2.44498642598716
H            8.82592672328193       -3.77931271434653        3.36270674377184
H            9.09132292267899       -2.87860626473113        1.86395974878418
H            8.04216663670552       -4.29840644044841        1.85773057860086
C           -0.90231218944346       -3.97705605082889        5.18708838769066
H           -0.88856314715964       -4.82264853666070        4.49987735754166
H           -1.88868057499749       -3.51082879259411        5.14114988578573
H           -0.75244752900297       -4.34514427058051        6.20283424303104
C            1.71060199668838        2.66135720913936       -1.70815622866189
H            2.38503910167182        3.46485101516107       -2.00411557811544
H            0.69469278245599        3.05276973388970       -1.65312432909943
H            1.73621664009330        1.89290793885918       -2.48417859666750
