65
 energy: -107.090554806376 gnorm: 0.000710249630 xtb: 6.5.1 (579679a)
Au          -0.88116832308972        0.68929061818336        3.47515762942572
S           -1.98859767374853       -0.79447987525265        2.10062045078778
P            0.22938477899373        2.30619163160436        4.71208479560811
O           -5.92822725974899       -4.65530509401531       -2.79215445962116
O           -4.38764667074819       -5.81444326115342       -1.86943175921753
O           -1.25908344756002        1.36181728794831        0.86067980182677
N           -2.45526830424310       -0.03868457831142       -0.44063516722293
N           -4.90846607115024       -4.75862968512444       -2.14896953996213
C           -1.91437906212860        0.18681333819505        0.69818129977291
C           -3.05828980510152       -1.22303589851082       -0.79147681885762
C           -4.23747911474473       -1.16032776255536       -1.55219681308790
H           -4.66291280364118       -0.18965467614611       -1.77746133151778
C           -4.84912311210995       -2.31394571743403       -1.99065646515747
H           -5.76564579480229       -2.27790183797007       -2.56747257963908
C           -4.27610475936628       -3.55219824365416       -1.68948355004676
C           -3.09110167383937       -3.63036849919024       -0.95380422788887
H           -2.66195742864176       -4.60204866525525       -0.73946096399364
C           -2.48586586518618       -2.47488379854042       -0.50972071696114
H           -1.56655818655024       -2.52451911368154        0.06104005978767
C           -1.16897089985870        2.19981944337026       -0.28547312620102
H           -0.61430904828384        3.08968709630195        0.01485824507221
H           -2.16994874647592        2.47717513662610       -0.63143519021185
H           -0.64338704200706        1.68226837714430       -1.09408488808463
C            0.36059479493352        3.85470493148134        3.76564005808755
C            1.44167747401596        4.73101179130865        3.88005570793437
H            2.25195512303350        4.49697693012867        4.56245025639964
C            1.49970526137663        5.89662525554391        3.12457173213747
C            0.45870088116208        6.18841099637324        2.24499654887610
H            0.49505540218724        7.09487999918160        1.65047668700152
C           -0.61952829249799        5.32455049400491        2.12212555239086
H           -1.42425451341317        5.55753176420687        1.43383554866412
C           -0.66901387765175        4.16139247014489        2.87437703480543
H           -1.50674685777529        3.48147882107840        2.76985103074264
C            1.95396439820379        1.92807226717654        5.15720053541721
C            2.56496194235232        2.39029142924769        6.32385677905889
H            2.00669801927733        2.99975780650471        7.02521793189897
C            3.88671837749449        2.06479338194129        6.59019275120755
H            4.35683667860107        2.42647058404675        7.49793304394794
C            4.60883741046015        1.28115304897470        5.70291147685250
H            5.64171752296506        1.03186898608919        5.92052464631834
C            4.01518348751879        0.80894492218495        4.53324227751784
C            2.68983282042890        1.13528311600511        4.27403163479431
H            2.21226870922837        0.76852367582123        3.37090987150387
C           -0.51814895203335        2.81072110585766        6.29464900163993
C           -0.68857926522312        4.14221039106749        6.67428722746012
H           -0.35663240250475        4.93604341846253        6.01383396389634
C           -1.28474733335760        4.46833894344226        7.88840205661682
C           -1.71204395754469        3.44551545293455        8.73140784027964
H           -2.17813461654007        3.68855002368241        9.68009454696609
C           -1.55092274191154        2.11748675025654        8.36222154816536
H           -1.89112899974258        1.32735660141536        9.02207728652460
C           -0.96275530602527        1.79875024531708        7.14921593354576
H           -0.84694846199264        0.76046377147707        6.85713750407438
C            2.66422472360849        6.83920701911403        3.25876211701228
H            2.35014243917391        7.75041732597695        3.77190577833867
H            3.04302777504708        7.12075598410916        2.27544176823818
H            3.47256230883936        6.38305029245798        3.82985968589285
C            4.79398155412708       -0.05681807685862        3.58209133534482
H            4.27670345406147       -0.15220405228960        2.62780817687811
H            4.92097190489647       -1.05480887034001        4.00656703837821
H            5.78525368756434        0.36253707314742        3.40635101690253
C           -1.44660195863545        5.90803302161316        8.29269313225122
H           -2.36271731277209        6.04745068025798        8.86688384670330
H           -1.47444232142946        6.55760900964339        7.41783819055474
H           -0.60492266542373        6.21387499521783        8.91816521422419
