93
 energy: -182.865726746406 gnorm: 0.000133351329 xtb: 6.5.1 (579679a)
Au           6.85638618303344        8.95273554997032       10.59490398622189
P            4.89241355634825        8.91434592734301       11.88516652402851
P            5.00871300986168        9.18097975236245        9.15243212765064
P            2.07098351947232        9.40163680912966       10.71929679631922
C            3.87868754088867        9.34431406779018       10.50716159515348
C            8.31382284573206        9.07244183178799        9.12707862982614
C            8.69661658278704        7.98041226919919        8.36986451250080
C            9.60587866621777        8.07368975675591        7.32377553803622
C           10.15781984512759        9.31149653190102        7.01361465348103
C            9.78962783460326       10.43205689040434        7.74979966425882
C            8.87650101388118       10.28886732754101        8.78629050358881
F            8.15010660657071        6.79505741438103        8.64590766053920
F            9.93676383100110        7.00014311485547        6.61372339729173
F           11.02023521567289        9.42549976772203        6.01145037482884
F           10.29873485262057       11.62289275452820        7.45083166568880
F            8.50669067508120       11.36687383037509        9.47949701786020
C            8.21785482255059        8.86271656978382       12.16293737476234
C            8.99372901002537        7.75973439070039       12.46764690246021
C            9.84628652070706        7.72277487890328       13.56467649132691
C            9.92669686083634        8.83039778756402       14.40087383710239
C            9.15264735859402        9.95345973260256       14.12995771550298
C            8.31931560461535        9.94423378799459       13.01991878396908
F            8.90303257231940        6.68332889594436       11.68607753314559
F           10.57046247028458        6.63906624682953       13.82487582190957
F           10.72660955970950        8.81093425021930       15.45948217764219
F            9.20524870598808       11.01054238279070       14.93417266804468
F            7.55891894089823       11.01275357337325       12.76967778055762
C            4.43393348460791        7.28628496003236       12.58531136556175
C            3.18152596234246        7.11204276282804       13.18132380712524
C            2.78226273841694        5.86052276896075       13.61996434468591
C            3.62717431088640        4.76763061970767       13.47014644288342
C            4.87185031363790        4.92927916673457       12.87770423692995
C            5.27194492346761        6.18125428340186       12.43547991387300
C            4.62290594046156       10.04879789479453       13.28511892573726
C            4.04560835397808       11.30258836813800       13.08531304418577
C            3.91290379610054       12.19045898222850       14.14099075172556
C            4.37077983647609       11.84178712292919       15.40441262146993
C            4.95657051981130       10.59936131439658       15.61184207475021
C            5.08436161234016        9.70766570021775       14.55937313498368
C            5.05329076661491       10.66760909240918        8.09972738961574
C            4.63695672740383       11.89784878678165        8.61035743756413
C            4.74491301478231       13.05004971488907        7.84882794542067
C            5.29290088545216       12.99271876729444        6.57457075612876
C            5.74266881767044       11.77982064268245        6.06900013340228
C            5.63054778507727       10.62524932859005        6.82709671461084
C            4.64417947513922        7.80484798810467        8.00508999960774
C            5.10757948416084        6.52938872064388        8.34031567038708
C            4.78906816050227        5.43124239356446        7.55899380679856
C            3.99423678048574        5.58998310024740        6.43100501042144
C            3.53303369394252        6.85221432805950        6.08350014176830
C            3.85781682153773        7.95362679764020        6.86030438575273
C            1.47342198163618        7.89951628298197        9.81556387173585
C            2.19516961748676        6.70462664891335        9.82079291048924
C            1.69109342032536        5.55707492111086        9.22837183906385
C            0.43962432564552        5.57523843463794        8.62851413110221
C           -0.30821927944858        6.74525080768200        8.64330852959415
C            0.19817398509218        7.88985563937142        9.23957713416928
C            1.66441919513682       10.69971874314033        9.45795769735300
C            1.56042899647823       10.47731036172264        8.08427383454944
C            1.32981723133308       11.52721899927927        7.20793701353914
C            1.19155464235976       12.82203395474539        7.68952362337282
C            1.27265359594742       13.05891676184193        9.05522964318946
C            1.50394072462735       12.00592641661277        9.92815147294453
H            2.51714262715223        7.96454788773443       13.28422264566646
H            1.80716381172706        5.73486049369301       14.07684115596883
H            3.31244875261730        3.78840603766751       13.81236376563482
H            5.53248045492228        4.07843806774418       12.75627563776232
H            6.24421750570190        6.30288142301779       11.96861218287228
H            3.69278794481007       11.57637955455110       12.09630553274680
H            3.45555487549440       13.15946674522576       13.97584797837673
H            4.27379690301007       12.53926384075508       16.22849865588396
H            5.31774025325419       10.32597588630241       16.59680856262896
H            5.54223672633346        8.73746197985449       14.72297173780514
H            4.21550897894644       11.94521271584931        9.60853049636307
H            4.40100698512145       13.99557312484955        8.25245855420924
H            5.37744768899568       13.89364440462987        5.97790394425823
H            6.18510516142087       11.73288541772461        5.08033517645328
H            5.99350641343098        9.68304957213775        6.43033907166548
H            5.72702564208467        6.40038666849942        9.22202845334248
H            5.16080412045374        4.44999658943983        7.83074116385091
H            3.73792478906473        4.73100002126296        5.82167490119812
H            2.91591159852876        6.98206220577481        5.20161333475826
H            3.49982227898525        8.93509683856157        6.57348697243986
H            3.17465702966425        6.67236253229914       10.28550977105945
H            2.28040936919982        4.64623273488746        9.23276787956041
H            0.04598015630025        4.68105705071029        8.15843711883541
H           -1.29292516647740        6.76558339269233        8.18898078122398
H           -0.40299125391376        8.79317810999620        9.25189348561670
H            1.65696229363077        9.47109555787031        7.69295775540662
H            1.26140325181394       11.33383998991174        6.14281518004582
H            1.01577346447508       13.64292943753789        7.00338152515476
H            1.15455442356110       14.06583420860189        9.44049682809736
H            1.56186607183028       12.19654984344683       10.99543625893483
