66
 energy: -82.835889799960 gnorm: 0.000154906681 xtb: 6.5.1 (579679a)
Au           3.71033430649189        7.53701958479369        6.36591817427674
Cl           3.98916838491614        7.77702355206421        8.59243710257890
P            3.41722867990304        7.30794698378107        4.09931512571614
C            2.46154683150853        8.78028775915901        3.42709475888836
C            1.01856755643915        8.65193982202709        3.95746412591546
C            0.18718648162080        9.87607616622437        3.55489706969659
C            0.80957216690271       11.14471576000279        4.14419723474011
C            2.23733853628522       11.28809421551102        3.61006998398349
C            2.21098091248439       11.39663678808907        2.08134198492904
C            1.57741064059848       10.12885217386046        1.49766281967555
C            2.41859043642876        8.90738608745408        1.89697627607730
C            3.06616740762133       10.06613534537209        4.02276528309859
C            0.14751399771718        9.97708481501699        2.02637093086989
C            5.04932544509293        7.00808568693930        3.21442973629266
C            5.91974739935688        8.27554773883855        3.24881758847734
C            7.31694956611964        7.97756962476434        2.68885822830851
C            7.18816820535329        7.50364486041697        1.23714857023575
C            6.33972629165140        6.22798884171581        1.19967210902440
C            7.01487366870876        5.13474710333407        2.03402651234448
C            7.14572584340497        5.62012566990850        3.48122263064603
C            5.75386905001809        5.91694651070448        4.04910297800765
C            4.93939895088268        6.51836418621807        1.75973502052270
C            7.99689215244594        6.89258913081678        3.52904518271684
C            2.40992283888183        5.81519752945024        3.63391787668793
C            1.56297072312549        5.30961937493153        4.80876842252269
C            0.76926137416753        4.06103728258154        4.41444485532807
C           -0.07854543214239        3.55399119953734        5.57931882352287
H            0.54142250869000        7.75779824837591        3.54772783632550
H            1.03372047260847        8.55911535024697        5.04830084827188
H           -0.83205719703599        9.75232140346487        3.94114991712079
H            0.82407407180671       11.08119923298855        5.23647324641161
H            0.21411769578850       12.01895232916295        3.86430340433272
H            2.69992504796090       12.18812738859104        4.03316768015598
H            3.22940423420251       11.51505753662037        1.69792794591827
H            1.63309863746294       12.27539461950077        1.77948284920991
H            1.55776068713411       10.19963113187123        0.40296042951248
H            3.42998124141165        9.03601050903735        1.50240844670408
H            1.99151395561643        8.00309229579309        1.45282114279829
H            3.08782065223488        9.98749811686218        5.11427055946032
H            4.09439322260312       10.20273429672232        3.68127466736423
H           -0.45472494586561       10.83911842816464        1.72380260087886
H           -0.31393090738663        9.07865750947938        1.60434033368860
H            5.46178119130327        9.06125419293286        2.64199366871099
H            6.00201502087636        8.64249759455139        4.27673951088708
H            7.91436085644031        8.89693277414655        2.72299108551357
H            6.71725061623727        8.28335363887935        0.63004227852834
H            8.17955818973390        7.30409051741154        0.81923647433444
H            6.23801204008726        5.88652921309753        0.16192960371722
H            8.00405828853307        4.90957115312755        1.62406297791887
H            6.41891614905815        4.21724652314689        2.00019999596980
H            7.61722822567954        4.83880691126454        4.08971095943529
H            5.84849083399255        6.25458608110393        5.08594889047468
H            5.15981685507010        4.99812965392180        4.05374675718877
H            4.33693709068825        5.60749243917584        1.70543834878362
H            4.45677675943051        7.27413314939217        1.13602325868918
H            8.99795430097149        6.68900008091363        3.13709285032053
H            8.10194248175155        7.23231631480186        4.56389536867689
H            1.76538037778575        6.02360857330864        2.77563548201511
H            3.08125056440956        5.00684145156550        3.33288262530011
H            2.22320026476784        5.07519309855190        5.64954050799155
H            0.87384812830460        6.08965992022175        5.14334143989668
H            1.46293475617955        3.27576642271034        4.09594275863102
H            0.12078598229472        4.29712129895243        3.56401866850804
H            0.55437891813113        3.30225813597143        6.43105568414954
H           -0.63042389187101        2.66248706725611        5.28080311608878
H           -0.79286579306472        4.31666160319973        5.89199637505493
