63
 energy: -96.084115943232 gnorm: 0.000171063154 xtb: 6.5.1 (579679a)
C           10.63993608980656        2.72626009286177       23.34536173805023
C           12.90191373305849        3.69888975571894       23.07953113145542
C           12.52614154301706        4.15231364077337       21.80168238902243
C           11.24005772314358        3.91396539157016       21.27350159488530
C           13.49196720877010        4.94411198786928       20.90346569146107
C           13.68570152164577        4.19417583124458       19.57005842400270
H           12.74426201382993        4.10973041429134       19.02988280203422
H           14.07094892489087        3.19098668080305       19.75974752936829
H           14.39898808073473        4.72770095089066       18.93826041114980
C           12.89903331478486        6.34033927680295       20.62497811180439
H           12.72638805022826        6.86572871957269       21.56569022361157
H           11.95338824573023        6.26140711219113       20.09126527888779
H           13.58978728138684        6.92956526645723       20.01812313827715
C           14.88240713048929        5.14798854180888       21.52395057901422
H           15.50633913427723        5.71374861580504       20.82678868172110
H           15.36853850944051        4.19357884758630       21.72060682191640
H           14.81924189359711        5.70654316266406       22.45660014378224
C           12.14760305397057        2.65080967387686       25.15811181503086
C           11.66586015924248        3.43693427459025       26.20334852932908
C           11.94275933760104        3.04962732813031       27.50902349888187
H           11.57182746809089        3.64820503130534       28.33495839725553
C           12.69260540990028        1.90628007865288       27.76948997735893
C           13.17870139665070        1.14948826561971       26.70881805925934
H           13.77152951927112        0.26244590337089       26.90886545919311
C           12.91593616743942        1.51310335984981       25.39237877700380
C           10.86670083528042        4.67657910513354       25.91191807614570
H            9.89030748855800        4.40730805878444       25.50478005007814
H           11.37965608222748        5.28960623868093       25.16960563838814
H           10.71496721135513        5.26447714819231       26.81692913588466
C           12.95852397472829        1.48836243273654       29.19227138534746
H           12.08620359290371        0.97000327252668       29.59764956022539
H           13.15609861573491        2.35804664876962       29.82087769880686
H           13.81299092934801        0.81306324690986       29.24820171201020
C           13.46443160136267        0.72071340087816       24.24087593293887
H           12.68927983083137        0.54347497302659       23.49375316598505
H           13.86175014215215       -0.23708613410093       24.57684507886695
H           14.26663709189248        1.28833211068616       23.76497583183750
C            9.09495690009244        2.77850150912457       21.55698291792406
C            8.07745200834584        3.72995158145652       21.52658267490485
C            6.84246624689644        3.36272465472053       21.00539565747073
H            6.03598437315667        4.08885927856618       20.97896277419846
C            6.62516648291167        2.07648393298236       20.51952871392202
C            7.66265341845075        1.15087503252885       20.54299547023862
H            7.50038511279215        0.15028903163038       20.15496730805309
C            8.90888385610597        1.49134030438329       21.05782365493693
C            8.33048540510984        5.12331875901583       22.02576343371880
H            8.83173166980588        5.09825094963870       22.99462050291326
H            7.39927150256532        5.68189660322893       22.12025473754934
H            8.98409445950295        5.64322875279073       21.32243184242864
C            5.27997954019968        1.70405017026567       19.95223111876427
H            4.47631680250200        2.10030957772772       20.57476985733755
H            5.17040436838938        0.62124281367525       19.88569424590297
H            5.16696108388472        2.12226446440831       18.94892868115407
C           10.03971552376627        0.50085362832983       21.07806572097084
H            9.78488865314228       -0.39375267225261       20.51022792177933
H           10.26506457910350        0.20812465056712       22.10532753776533
H           10.93979208223288        0.94861063291975       20.65419864953618
O           13.97836068655092        3.78478119888145       23.66549972862781
O           10.77196869167973        4.28259881802839       20.19626467469482
Cl           7.75262203901619        0.54782106468585       25.71787252034267
Au           9.28584646982694        1.70407076038218       24.45781573238997
N           11.83997161940006        3.03050992625419       23.81273929714116
N           10.36786611719166        3.12498586952811       22.11148215506093
