79
 energy: -98.995561705277 gnorm: 0.000179803152 xtb: 6.5.1 (579679a)
Au           1.93514231929486       -0.81206628758398        2.95138894568188
Si          -1.08577221193293        1.06765402322067        3.77052404699864
P            1.87796896229043       -3.12922987137682        3.18088704205085
B            1.16062297876039        2.20788931007591        1.74974082532718
H            0.60481699362363        1.62932667705628        0.88815435385681
B            2.93901635158319        2.23640023451315        1.91203328820534
H            3.58109755799142        1.66312350060557        1.10487142686635
B            3.35248994148618        2.08235106113804        3.64746026259790
H            4.26548635325799        1.40701416710056        3.97082155373756
B            1.83518182617669        1.95818334650353        4.58541947199570
H            1.69678341413124        1.20887654276459        5.48758030689976
B            0.47174618948229        3.62224078304175        2.62579554971228
H           -0.59303128662279        4.02510913223747        2.31189733735748
B            2.00824148503744        3.78520371137738        1.66612039080309
H            2.04707799545683        4.38684755901517        0.65352414011153
B            3.39702896077543        3.71844643962751        2.85687775842133
H            4.41588161860774        4.27984421357250        2.66048322052358
B            2.70622845235134        3.52911702845376        4.53955498127804
H            3.22230875887874        3.95050957857131        5.51170124234988
B            0.90233838304309        3.47962485111735        4.37045969752459
H            0.12126042771381        3.79088522907586        5.19806724565249
B            1.85699424844332        4.58358392896397        3.30342830925975
H            1.78576490034303        5.75498266616349        3.42335440173286
C            1.93962324404806        1.26475602718981        2.98579264735797
C            0.54929371839599        2.02424247213532        3.38793163744945
C           -2.30788419050394        2.29701858010127        4.58037196428800
H           -2.47961257698621        3.20293009303978        3.99021026224125
H           -1.96398454758371        2.64086316056424        5.56204973198983
H           -3.29651562102977        1.85616132674645        4.75155853223482
C           -0.78502805936191       -0.33488044093782        5.04840571839958
H           -0.16417889947809       -1.15681779146206        4.67894279483672
H           -1.72573688098618       -0.79423997943160        5.37256653439081
H           -0.29850121187618        0.02191192488944        5.96168216392660
C           -1.99771686585372        0.27032621463825        2.21909313980792
C           -2.52603843240065        1.34547219925646        1.24003656259615
H           -3.22346695111931        2.01853777798934        1.74147108636530
H           -3.05083051096584        0.87168861993317        0.40693640473120
H           -1.70945153675251        1.94100874471930        0.83171584093325
C           -3.22963116635594       -0.53234447900183        2.71761791663588
H           -2.92271828371976       -1.38457017409187        3.32679456026756
H           -3.79180942197001       -0.91672916761546        1.86312125387530
H           -3.90276793474046        0.09040365953090        3.30891570571775
C           -1.14197900807709       -0.72662474850783        1.40712776550566
H           -0.74534893317094       -1.50870025314906        2.05571006503655
H           -0.30550622964849       -0.22911388272218        0.91885485255796
H           -1.74609949072873       -1.20680941078607        0.63288025842414
C            0.20846418526889       -3.84324151434526        3.07083707295862
C           -0.35726928120428       -4.09462148734540        1.81658247180151
H            0.24167995749341       -3.96787302593885        0.92127632870501
C           -1.67793297699153       -4.50082994770213        1.70750883903358
H           -2.10160419808934       -4.69533688401642        0.72874728250708
C           -2.45892699706384       -4.64598550821748        2.84650570112657
H           -3.49440129088019       -4.95449578382526        2.75967838012726
C           -1.91083211554493       -4.39020241542360        4.09587257631123
H           -2.51683504281748       -4.49875324003150        4.98827667884029
C           -0.58790852701852       -3.99037165585308        4.20859521125493
H           -0.16973010239606       -3.79099756342124        5.18886952673438
C            2.88549293973951       -4.14278630039160        2.05411722987092
C            2.59492290376022       -5.47232133305919        1.73754528414792
H            1.71036264352996       -5.94659229585350        2.14773663688853
C            3.42648031944431       -6.18918387834437        0.89068234939412
H            3.18976844809174       -7.22002390520655        0.65202209461334
C            4.55687017688154       -5.59153495696492        0.34955121937112
H            5.20451171758892       -6.15505822268707       -0.31235599200888
C            4.85277350997126       -4.26959472740899        0.65335341672689
H            5.73092887990663       -3.79659796586941        0.22876414518238
C            4.02133560682214       -3.55067489802845        1.49745701672428
H            4.24953795003357       -2.51558950853492        1.72892623998319
C            2.44217288245470       -3.63450737048280        4.83757512539669
C            2.57894987098256       -2.65206739244523        5.81962169246572
H            2.35785651075896       -1.61946851855594        5.57318731910321
C            2.99440807822941       -2.98270198696597        7.10013433884654
H            3.09467060783870       -2.20771869547619        7.85138048724006
C            3.28452448500545       -4.30257690928382        7.41514727320568
H            3.61286325038929       -4.56371435789802        8.41472308130524
C            3.15720238700632       -5.28911089920237        6.44547997468811
H            3.38575861991669       -6.32107945422665        6.68731269024233
C            2.73907608343859       -4.95973681051791        5.16614765542860
H            2.64574368830201       -5.73745888570956        4.41620745337484
