128
 energy: -196.604511018569 gnorm: 0.000255772692 xtb: 6.5.1 (579679a)
C           -1.00780328566682        0.36020173078402        4.94448494830600
C           -0.83589064181818        0.61113911517832        6.30840224345483
C           -1.75987776937681        1.44350248462047        6.93233239913146
H           -1.65282611837464        1.64504749021326        7.99268440459727
C           -2.77593166316637        2.07175659766113        6.21844754367585
C           -3.63257673243132        3.06952555329742        6.96515312948861
H           -4.03728674723009        2.59352574227065        7.86441154028234
H           -2.98260433576825        3.88606925549239        7.30112660780887
C           -4.77278884884923        3.64782103358927        6.12788525833031
H           -5.13422777537914        4.56839261576204        6.59429161068857
H           -5.60800818308617        2.94033124760821        6.09025747417682
C           -4.28215417699571        3.92708643370453        4.70933901713305
H           -5.06094165155655        4.43200992343854        4.13132449816985
H           -3.40245716013736        4.57744160899912        4.73858479335962
C           -3.93313946270048        2.59958148896612        4.03876670615522
H           -3.52774563834917        2.77659051021942        3.03791364808107
H           -4.85853208535327        2.02640304792063        3.91687202492544
C           -2.93154382527510        1.81439845670013        4.85509495703533
C           -2.07012295280045        0.90230148240468        4.22282117356382
C           -2.24819511066541        0.56650177118678        2.78216771153155
C           -3.42180031481240       -0.07241366348994        2.34558868222021
C           -4.37037570731476       -0.66618335265550        3.36229754799165
H           -3.79694152217743       -1.03775683082012        4.21719653909131
H           -5.05381466560565        0.10065978623942        3.74123408106724
C           -5.20687581380357       -1.79201776571049        2.75714644809673
H           -4.56555835965821       -2.63930300162970        2.49420042824142
H           -5.93978505349812       -2.13508731307090        3.49244049792320
C           -5.91514185170280       -1.26763459694407        1.51001085026860
H           -6.49655903967448       -0.37686819145312        1.77013091229349
H           -6.60803748036937       -2.01877357553070        1.12087839568191
C           -4.88381714297446       -0.92409642887364        0.43576783373650
H           -5.34384583952308       -0.29432773542617       -0.33282609671420
H           -4.55830789000200       -1.84671548439033       -0.05984627442201
C           -3.65612092468874       -0.22887284359790        0.97996828079271
C           -2.72314600439372        0.24424832661468        0.06121249385076
H           -2.94102944718856        0.18147132994024       -0.99933180132272
C           -1.49761045997026        0.76113811458836        0.47012933823328
C           -1.26565878113401        0.88088186970995        1.84309528231122
C            0.34199169385682        0.10619960199557        7.04205508309380
C            1.12700699861964        1.02533485945664        7.74131872087143
H            0.82454926722302        2.06547849283944        7.76813793987576
C            2.29558292735095        0.64089243609301        8.37239895390615
H            2.89479614274551        1.37868605574968        8.89400107816412
C            2.72666004065505       -0.68941883131175        8.32169499002213
C            3.95712662849108       -1.11091639493691        8.91559273554391
H            4.56294198645219       -0.36561424483636        9.42023943378130
C            4.36568180466495       -2.40191094642711        8.84644085925811
H            5.30491617616410       -2.70904258088476        9.29451533650097
C            3.57421175532203       -3.39414652273295        8.18669590105065
C            3.97968167481057       -4.73088957124811        8.10143633458012
H            4.92330558036579       -5.02979831846719        8.54511222137434
C            3.18878984853314       -5.66950258049076        7.45681006896762
H            3.51896298730949       -6.70108413428358        7.39940323306951
C            1.97953854184779       -5.30312131214632        6.88640214907308
H            1.36721927030026       -6.04624595120791        6.38689810205866
C            1.53798965358646       -3.97668697236922        6.94558049599227
C            0.29539978961150       -3.56075052281684        6.37354863491383
H           -0.33094148124146       -4.31135218101989        5.90274132211350
C           -0.09805104124220       -2.26361839804813        6.41110163567480
H           -1.04662822684776       -1.97303542863375        5.97447526509140
C            0.70946795198397       -1.25297008978325        7.02399702257313
C            1.92059490670968       -1.64951371573618        7.65351625653943
C            2.34163039623043       -3.00562672966102        7.59836563818355
C           -0.48442119791591        1.20259837655301       -0.51279004905732
C            0.01053597691724        2.50338704350285       -0.41884625813090
H           -0.35178677801129        3.14719692966293        0.37457348866476
C            0.93920899963359        2.98591948277565       -1.32168310945790
H            1.29985041593963        4.00483585703040       -1.23376221860607
C            1.43007107901070        2.16694201640232       -2.34458276201766
C            2.41075821374452        2.62880392632332       -3.27684157095646
H            2.74629568547683        3.65759353618004       -3.19870781862193
C            2.91986495877524        1.80654901254295       -4.22728528001356
H            3.66968332629623        2.16503998096409       -4.92467254397596
C            2.49607224363227        0.44441905591255       -4.32954806452986
C            3.03624672513498       -0.43016967170353       -5.27919303077470
H            3.79319660632513       -0.06711674025895       -5.96601378370887
C            2.61759738660052       -1.75013080870386       -5.34361166960285
H            3.04984906702255       -2.41518145012767       -6.08328056153705
C            1.65361540245602       -2.22869946170760       -4.46993761926282
H            1.33500483783952       -3.26398721688415       -4.52617513048796
C            1.08628993977106       -1.38713844784456       -3.50676218587838
C            0.10663288553013       -1.84971697809752       -2.57484967733324
H           -0.20648523385140       -2.88717847765153       -2.62913419706365
C           -0.41474826128156       -1.02504848451547       -1.63315789596709
H           -1.14263016027764       -1.40896554572577       -0.92734290571732
C           -0.00981477010501        0.34453169066825       -1.52507524384194
C            0.96563393774190        0.82854887355906       -2.43892005106474
C            1.50752209670904       -0.03426032533205       -3.42926624254452
C            3.16989832473298       -1.08650069335069        3.11510932223033
H            3.75191583282649       -1.51465007415684        2.28693072092758
C            2.84770206893106       -2.19641137205905        4.11825212222338
H            2.08915748948253       -1.86482792881144        4.82371155810467
H            3.74859998843684       -2.47500944441592        4.66497877173402
H            2.47341054378430       -3.08146353469386        3.60809962965273
C            3.98978547332771        0.03180863700935        3.73096594110381
C            4.74501250117873        0.85482747150554        2.89781675761414
H            4.74551158502016        0.67805219658040        1.82793831068840
C            5.49831191019963        1.89555796894171        3.42023173060150
H            6.07481022474362        2.52799115955519        2.75438276260078
C            5.51802957858441        2.12393847708227        4.78906544128491
H            6.10476699784606        2.93776013537059        5.19852218685981
C            4.78222632742919        1.30222377074218        5.62995395510723
H            4.79273388773031        1.46591019242314        6.70139812627131
C            4.02131017399524        0.26406061380627        5.10571291968371
H            3.45968640232108       -0.36457144506930        5.78422007758464
C            1.50126008876668       -1.12951545849496        1.23418821762506
H            0.64718569560362       -0.53191300496723        0.90140614128154
C            0.99800228717850       -2.56062976573844        1.41115851465332
H            1.80543061612227       -3.25900413588822        1.62385357368854
H            0.49328699725834       -2.88027872183214        0.49901002928295
H            0.28177157613460       -2.58796021292500        2.23177835480420
C            2.59281590720656       -0.94819370716622        0.19702712285140
C            3.07356607307187        0.34358345815820       -0.02290746995315
H            2.66374538882742        1.16705877517501        0.55252917858922
C            4.05149958833489        0.58458738751949       -0.97448847385289
H            4.41049688226024        1.59494467598953       -1.13493847775339
C            4.55608834126552       -0.46410260106383       -1.73233025494197
H            5.31396219133650       -0.27775797580631       -2.48461031593911
C            4.07622295036233       -1.74871143580006       -1.52900796894248
H            4.45741147518886       -2.57167731179769       -2.12349030521578
C            3.10206504152852       -1.99182019144385       -0.56852723504929
H            2.74006761800121       -3.00425896014454       -0.43485344097700
N            1.93720265920461       -0.53618231281861        2.51045117935189
O           -0.01597684596940       -0.31307686279961        4.24823520169933
O           -0.00170016912143        1.26932289925631        2.27142357276783
P            1.02563445022190        0.61180854299503        3.34507144555034
Cl           2.23431767564284        4.07821359836765        5.99079344967863
Au           1.73178600689249        2.34097276468294        4.65146946682232
