110
 energy: -128.093846281605 gnorm: 0.000142598158 xtb: 6.5.1 (579679a)
Au          10.16481424699043        5.74816012661088        5.37281787460156
P           12.36892095268048        5.12337102060582        5.12221215117653
P            4.64387259329080        5.66247160786952        5.61747723104519
C            8.26727847807864        6.30250265826972        5.62372960284824
C            7.13309754037791        6.67742225966198        5.81309078657616
C            5.74282675532953        7.07858996304773        6.05125562807791
H            5.47603068687887        7.95053006758804        5.44490472461184
H            5.59829200818369        7.35552597758898        7.10086591345875
C           13.51230531714763        6.50752084431226        5.60047469170741
H           14.56266712107615        6.19876714429822        5.52647843550311
C           13.23034373575317        6.93390847435546        7.05055966243727
H           12.16938651965603        7.19086820085415        7.15226170667625
H           13.43879995197533        6.10708718901578        7.73493357724319
C           14.09218307345454        8.13408552681429        7.44953962052350
H           13.84937176857214        8.42318593149471        8.47593795407921
H           15.14853305888722        7.84712498958277        7.42120406550342
C           13.85426974359288        9.31341608512538        6.50670963445465
H           14.50382316853090       10.14678889607574        6.78758946841087
H           12.81578340151466        9.65052834708105        6.59329819913187
C           14.14135312952496        8.89919988805850        5.06372735740808
H           13.93425669171875        9.73402939126025        4.38833835434884
H           15.19892447737162        8.63528481413289        4.95923063748886
C           13.27776338158240        7.70190321799148        4.66021961418260
H           13.51520097593089        7.42473675215800        3.62985403943142
H           12.21874198895566        7.98377105863669        4.69294049869836
C           12.80884861060070        3.71768735083576        6.25880154854268
H           12.83594629870991        4.17637105654724        7.25821603334409
C           11.68313810879067        2.67127904313235        6.29643421687212
H           11.62040878670200        2.14360339505702        5.34044917736034
H           10.72331796264655        3.17221527707879        6.46279497445942
C           11.93916723936468        1.66271164646101        7.41908093530338
H           11.14634707614466        0.90895061923838        7.41701621318500
H           11.91112072468021        2.17864193553611        8.38479767120005
C           13.29894228361327        0.98450788822757        7.23695395382812
H           13.48116828774850        0.30052671698915        8.07032860784484
H           13.29277791971207        0.39583224893861        6.31343456707608
C           14.41830162888808        2.02540109892518        7.17178496994669
H           15.37623216339165        1.52659225619634        7.00068879240174
H           14.48214905800907        2.56036696185676        8.12510917307766
C           14.16014004309023        3.02501278563066        6.04032609408278
H           14.15604702791927        2.49065193938140        5.08608408723150
H           14.96369572438644        3.76600972499808        6.01486809659509
C           12.81051142959612        4.71941361368125        3.35961888132074
H           12.40667190727048        5.57420146454517        2.79584260446011
C           12.05331818611517        3.47432888505111        2.87261072038366
H           10.99332282433706        3.55865563208453        3.13411976559922
H           12.45172121434775        2.57999787511756        3.36106912709829
C           12.20074260018075        3.32715431522507        1.35568756773566
H           11.67786076302765        2.42437779428477        1.02714858645961
H           11.73615533301748        4.18568932185523        0.85904964339445
C           13.67762952563693        3.24146528565289        0.96513377363415
H           13.76613364011858        3.18034704791336       -0.12297918571617
H           14.11570813504277        2.33216464772613        1.39009501409683
C           14.44303460118897        4.46405534078902        1.47477857186788
H           14.06198153085216        5.36780659863493        0.98752757767828
H           15.50263373899417        4.36729138063965        1.22239382048022
C           14.29801924911035        4.60328270400600        2.99350849178980
H           14.74493913803577        3.73211104844081        3.47802617548437
H           14.84351418287732        5.48932254192982        3.32728155300814
C            5.44209148409460        4.12262896376061        6.28051275681188
H            6.33037045103254        3.98277126793111        5.64575081992329
C            4.55998455663450        2.87228367917200        6.13243353933754
H            3.69277442515840        2.94801427865014        6.79503764088394
H            4.19659265118990        2.78353713428266        5.10467077067241
C            5.37261491232076        1.62700736499774        6.49938167200766
H            6.20326744654798        1.51458796825171        5.79498876192973
H            4.73308768680179        0.74492945888084        6.41077673699528
C            5.91316184839926        1.73581365672074        7.92586217902984
H            5.07773066624762        1.76002723943502        8.63313223714487
H            6.52157037032486        0.85688684031688        8.15380269935218
C            6.75871039551584        2.99969193046759        8.08855702510272
H            7.64234190092204        2.94057781320480        7.44424736193483
H            7.10175633103371        3.08531230204949        9.12294316201624
C            5.95078352553502        4.24979951192122        7.72748230971069
H            5.11255391476268        4.35624311426662        8.42067015766062
H            6.58964459591528        5.13097155734019        7.82469651159432
C            2.93634632591909        6.01743529803075        6.27274205153341
H            2.72977393948450        7.05257229000800        5.95928655774730
C            2.87584808825193        5.97866343918287        7.80997532267806
H            3.03030535972918        4.95415066793945        8.16060646657748
H            3.66149593206565        6.60759178343307        8.23774599218875
C            1.50662635532772        6.47479620748577        8.28395912512234
H            1.47077587648562        6.42933511409436        9.37547466383805
H            1.37352530422815        7.51931287639603        7.98452854819957
C            0.38790056850257        5.61759980074223        7.69102655966452
H            0.47496359401140        4.59181450463046        8.06369246600141
H           -0.58130442086718        6.01020275097532        8.00856158268528
C            0.46308000354357        5.61631635640464        6.16386262293658
H            0.28882935317410        6.62793499978074        5.78318167241243
H           -0.31263031282974        4.96391595665441        5.75459440746584
C            1.83148600455703        5.12237810054755        5.68380937722801
H            1.97767029196863        4.08642082512383        6.00094339123787
H            1.86014469629962        5.14745629189435        4.59167017857782
C            4.55674960000608        5.52772609126395        3.76682063942969
H            3.89930258986091        4.67589690820149        3.54079761575624
C            3.93744583545849        6.79193209700994        3.14007370741425
H            2.95629133214086        6.99410228490799        3.57767282706370
H            4.57905064029121        7.65613357920276        3.33792600765913
C            3.78624013416206        6.60467367439949        1.62779744169687
H            3.09189031942344        5.78135547820983        1.43106878895151
H            3.36000945006222        7.51542319807231        1.19914545092374
C            5.13894157621080        6.30821432386897        0.98075079974132
H            5.00390987575073        6.14377459322980       -0.09123439751971
H            5.80440548212234        7.16789313220583        1.10968695685383
C            5.77205895096961        5.06946316739542        1.61406275395004
H            6.75758629069389        4.89071712588148        1.17598987218227
H            5.14927563241079        4.19140787015129        1.41381111161025
C            5.92968283524005        5.24884020564578        3.12640068564259
H            6.61025867485757        6.07982804406502        3.33139422559266
H            6.36923894294600        4.34182901136815        3.54929495424215
