105
 energy: -149.886323550101 gnorm: 0.000123833223 xtb: 6.5.1 (579679a)
Au           1.09087986532483        4.00911079513012        5.22492034419535
P            3.44105425678801        3.82629739528655        5.99561266059558
P            2.02024332972348        4.42838264252627        2.97093950990681
P           -0.45815046232861        2.21181361911161        5.92713661398599
P           -0.61954995669444        5.60111447074705        6.05365832551579
C            4.33951094032478        3.70865178720149        4.37019321006664
C            3.80820046524788        4.74888599390798        3.37428626893382
C           -1.66661597852413        3.16785124467788        6.97013890579275
C           -2.08145693561875        4.47054371247159        6.27218955604808
C            4.01810967663861        2.39044703801143        6.95898920434496
C            3.47392139990675        2.25247303387213        8.24231374046789
C            3.77500546533258        1.15282010013005        9.02718722525094
C            4.61597344699700        0.16107817597015        8.53769483069627
C            5.15417462385354        0.28057373990608        7.26474738956664
C            4.85894674983257        1.38530338357045        6.47825738998588
C            4.27833287471822        5.24485843989937        6.78273563289427
C            3.64469685092426        6.48957184634411        6.75329939209025
C            4.24107203437372        7.60081152494477        7.32835863795206
C            5.47722850744506        7.48017530366343        7.94824759220771
C            6.11402685817304        6.24668017382652        7.98937618625543
C            5.52163567811468        5.13498045405567        7.41140703585708
C            1.49501122747293        5.86450752420540        1.97903223511718
C            0.15971231247287        5.86421291271029        1.55600695450128
C           -0.36822745656370        6.94408479042658        0.86963848878683
C            0.42619051286038        8.05280664884866        0.60497982710646
C            1.74769877355129        8.07004198265187        1.02659397973411
C            2.28120705509853        6.98595817570508        1.70945605599944
C            2.15042414014600        3.07757341266787        1.75013894956332
C            2.48962445367405        3.29894430497403        0.41255308761176
C            2.58235140665367        2.23509361566161       -0.47084099930098
C            2.33957542658203        0.93930581881971       -0.03404749667213
C            1.99934455430064        0.70780726844707        1.29166141988053
C            1.90172097753486        1.77060933504445        2.17608835547104
C            0.09941187573126        0.83863719117221        6.98807008209056
C            1.02589840041268       -0.04291807519025        6.41660005410033
C            1.58207470843001       -1.06926149115026        7.16035723693148
C            1.23270105267852       -1.22566535769121        8.49598497055471
C            0.32356934646852       -0.35371629659191        9.07700218136994
C           -0.24008185708668        0.67250166055568        8.33177755121698
C           -1.56384898588665        1.40816715258635        4.71738530135004
C           -2.31760183188829        0.27146036951715        5.02235632420361
C           -3.14765636295446       -0.29431382907199        4.06754992696419
C           -3.23810508269424        0.26415081504087        2.79918745435991
C           -2.49221208928868        1.39167990264133        2.48428256511048
C           -1.65804823385961        1.95682798683704        3.43616409821749
C           -1.23103511398995        6.96733145478899        5.01331702674708
C           -2.50434967668648        7.03825392225097        4.44580118035626
C           -2.83291001711719        8.07620968713235        3.58507642008788
C           -1.89947471684135        9.05518375348583        3.27736613452085
C           -0.62755909683196        8.99499067624901        3.83323115735327
C           -0.29532459990474        7.95720233705348        4.68678919251544
C           -0.47348046219294        6.34744869245532        7.71336186042969
C           -1.28966374255824        7.39650619745339        8.14507727156945
C           -1.13764888089220        7.92285781284829        9.41815553897486
C           -0.17289311805090        7.41171594928393       10.27645333320881
C            0.64492789726032        6.37116743240759        9.85771500711794
C            0.49763555625524        5.84594484994634        8.58349654204415
H            4.18810979066795        2.70886426546119        3.95386383572155
H            5.41516605214111        3.85509080711154        4.50010525159264
H            3.89795675260227        5.74429640666890        3.81806342473086
H            4.42748117210527        4.72967358484501        2.47344821171647
H           -1.19402596009776        3.41183324270952        7.92561590010221
H           -2.56096068744099        2.57619820417924        7.18341668393087
H           -2.49330776205010        4.23084718815611        5.28792546027306
H           -2.87154994545049        4.95187259522556        6.85479337599744
H            2.80520863508951        3.01894915266400        8.62273144113521
H            3.34596507960415        1.06322980947281       10.01859519894312
H            4.84708373939801       -0.70468461291453        9.14707836666729
H            5.80929761520438       -0.49130584882348        6.87738221723752
H            5.29127907570230        1.45858883018658        5.48747588683451
H            2.67221531490904        6.58401831692042        6.27951038419077
H            3.73698786432271        8.56001805414345        7.29713251659229
H            5.94291925493990        8.34661454038818        8.40304403971414
H            7.07782410288562        6.14922519736890        8.47566895235011
H            6.02314467991677        4.17433790647367        7.45055659081138
H           -0.46779052808199        5.00489500150841        1.77323022986601
H           -1.40335862753299        6.92612279703232        0.54843785893325
H            0.01324480082777        8.90271314539146        0.07447336293294
H            2.37114569773103        8.93341456374903        0.82427294289241
H            3.31607218292929        7.02030862660748        2.02852964121601
H            2.67720448141923        4.30842713908421        0.06372739002112
H            2.84467625387298        2.41874418987251       -1.50637542938809
H            2.41166275849625        0.11031480917726       -0.72831119606056
H            1.80409669242542       -0.30094157094909        1.63728057982800
H            1.62392341181353        1.58842233152188        3.20989462789686
H            1.31131073566222        0.08467126568294        5.37659091840173
H            2.29630915803209       -1.74316777642555        6.70133487517858
H            1.67232292995096       -2.02375651308757        9.08256776508269
H            0.04910626534508       -0.47020251071015       10.11918241054971
H           -0.94862134483256        1.34132792515354        8.80566762342849
H           -2.24932518223746       -0.17198069112365        6.00958227579715
H           -3.72644226593696       -1.17681128107427        4.31469493153233
H           -3.88712369592515       -0.18221636461219        2.05490339266284
H           -2.55512803897102        1.82924113324775        1.49447047509494
H           -1.06660791773800        2.83187905833422        3.18396771751639
H           -3.24933217986377        6.28512578276624        4.67326058691340
H           -3.82603821798018        8.11759937453398        3.15262041304174
H           -2.15970049023695        9.86217688047689        2.60256862155828
H            0.10885672442667        9.75314220179066        3.59262127204376
H            0.70415908800206        7.90542953409104        5.10839091250707
H           -2.04272707514829        7.80312291193447        7.47916662447301
H           -1.77525795120036        8.73754597552453        9.74160768804390
H           -0.05591504083919        7.82738530074197       11.27041467057792
H            1.40291395422295        5.97112791880361       10.52147727891939
H            1.14667060404662        5.04013774126134        8.25403287808085
