21
 energy: -49.454575825026 gnorm: 0.000148819655 xtb: 6.5.1 (579679a)
Se           1.23093291370586       -0.41726493542637        6.32160000478496
Se           0.64644378956607        0.87759711199939        3.16344831693295
Se           4.00638188606460        1.56265082076574        6.62035447867070
Se           3.42184917277659        2.85772899584849        3.46205608464542
Au           2.32477033572335        1.22207300150885        4.89295717669416
C           -0.18675286354096       -0.94316116990539        5.24246672209320
C           -0.42459568017192       -0.41618301113509        3.95714366246792
C            5.09922094753269        2.82818529456920        5.81095965115079
C            4.86129129368800        3.35534254629605        4.52571473929489
C           -2.02131713500408       -2.28119945256309        5.01704064960983
H           -2.66701102208657       -3.04028410857675        5.45215766870333
C           -2.25408583792825       -1.76540866114834        3.75882209380096
H           -3.09267040862816       -2.09704958963708        3.15115932209203
C            6.96490723101893        4.13058512027079        5.98345382719963
H            7.81926326915276        4.44179271401018        6.57986208402540
C            6.73199814598125        4.64662863469587        4.72536478814078
H            7.39331235224000        5.38555493934505        4.27912174667151
N           -0.98808690177070       -1.87082169750950        5.76167713296424
N           -1.45711796427332       -0.83155574768481        3.22664871044315
N            6.14895876710520        3.22125197458260        6.52915775080454
N            5.67970770884944        4.26093721969371        3.99433338880963
