115
 energy: -151.371423013233 gnorm: 0.000206266034 xtb: 6.5.1 (579679a)
Au           5.85961477922379        5.18486319401003        3.62739494080552
C            5.78841283505961        5.33130786953264        5.64717867350848
N            4.72382860596138        5.62557132370120        6.40767288296000
C            5.05220243602627        5.63024582781294        7.74110639766313
H            4.33009806850845        5.84990909205406        8.50750957638437
C            6.37347065098064        5.32924106946534        7.80905648268054
H            7.03906391840742        5.22303103653415        8.64736486117291
N            6.79499767747097        5.15006333436363        6.51445252825518
C            3.42396613702068        5.86730893518080        5.86406517212201
C            2.51535619015706        4.80722360538894        5.81851038707858
C            1.27528871034397        5.04329461956171        5.23195694230472
H            0.54608505262560        4.24492284518146        5.16642663247632
C            0.96148947776985        6.29466160628807        4.72270001632590
H           -0.00955770034274        6.46248155984005        4.27147246825368
C            1.87755798825815        7.33269217561746        4.78781982329738
H            1.61326373353624        8.30454975544872        4.38789159238016
C            3.13177006468265        7.13653147639236        5.36310007535695
C            2.89527414054014        3.44058356528973        6.35073980405595
H            3.75108491760743        3.55569195392618        7.02769321327426
C            1.75868495401620        2.78769882001962        7.14307477983118
H            2.12415128599434        1.87915590454360        7.62157010909623
H            0.92456651503766        2.52024613284538        6.49458436886071
H            1.39893634974688        3.46819416198825        7.91458271197139
C            3.33385754155725        2.54118027395291        5.18814719079968
H            3.69282851751682        1.58454522440716        5.56747447297125
H            4.13841609394237        3.01932153268773        4.62674004805533
H            2.50168348518986        2.35990682953506        4.50882954443886
C            4.13143900025655        8.27073968567102        5.45076858009565
H            5.02578666126202        7.91324792278468        5.97611210523291
C            3.55112782065017        9.44105022554152        6.25370233774515
H            3.23985118796729        9.09814496965900        7.24038179941256
H            2.68916063503651        9.87448596612315        5.74704425808215
H            4.30806387519557       10.21571433611386        6.37500263278121
C            4.56131684543274        8.72757849505966        4.05192300109507
H            5.30048012927052        9.52491935827747        4.13046477331366
H            3.71021981931171        9.09507090553196        3.47871296839555
H            5.01041698788599        7.89251601210735        3.51104927523117
C            8.13026745733923        4.84887052235663        6.10218957129858
C            9.03369186583651        5.90417415270155        5.95733268642053
C           10.31311722872162        5.60225674868526        5.49924536533497
H           11.04024437278870        6.39374181683797        5.36332861341203
C           10.66845571345790        4.29369054314043        5.20805591554824
H           11.66943025031667        4.07508905963046        4.85455037959544
C            9.75536104873293        3.26297569328228        5.36665460381688
H           10.05178919813105        2.24640197218984        5.13641991790465
C            8.46329690189207        3.52359656215804        5.81935973190636
C            8.61373768068681        7.33019177604440        6.24869339177482
H            7.68661926981099        7.30930621609845        6.83498434166722
C            9.66560078014518        8.08612715866591        7.06634971765124
H            9.26875676657495        9.05743142609253        7.36133996650619
H           10.57544633363242        8.24917854490311        6.48901456164232
H            9.91722222502495        7.52384436384712        7.96540697139627
C            8.31974756921331        8.05892948717105        4.93153191069064
H            7.57529138073237        7.50638904641326        4.35560416710462
H            9.22425484449235        8.14553451485492        4.33049795060403
H            7.93466980181928        9.05848479831459        5.13280748812703
C            7.46424408452028        2.40095235202450        6.00592975378959
H            6.53548270738644        2.81938815490793        6.41329563942419
C            7.99282334207444        1.36698783972710        7.00714730322844
H            8.23623871522895        1.85333837811137        7.95172792248431
H            8.88804737698617        0.87544329213133        6.62700330510766
H            7.23170002504256        0.60864083255460        7.18981722804074
C            7.13118910412003        1.74104100047855        4.66274757936368
H            6.71813571049652        2.48343450480034        3.97732948944112
H            6.39021507071353        0.95461109558409        4.80681102233870
H            8.02019068861338        1.30468095887979        4.20747242711232
C            5.92895903733929        5.03684245564655        1.60691195878086
N            6.89635096017910        5.50141229287133        0.83156570985792
C            6.66965087968259        5.24226204617161       -0.59771046954944
H            7.48717039525352        4.63600520251853       -0.99891010809948
H            6.62721364402374        6.18726971775948       -1.14696760333516
C            5.33405374430848        4.50442479434605       -0.58716260012387
H            4.54784564386461        5.04055992512800       -1.12685978174041
H            5.40799340205871        3.48869046842290       -0.98637918593644
N            5.01231764297051        4.45854972862875        0.84656492062777
C            8.08860561927864        6.14536662876233        1.27772100216368
C            8.17597613816489        7.53709893844068        1.22264964636832
C            9.36456709235862        8.14419057256735        1.61383799777923
H            9.44675392685872        9.22471544966806        1.57057399413390
C           10.44674573894277        7.38848733117813        2.05745313963649
C           10.32528714198148        6.00345048368501        2.12168284111977
H           11.16053168034742        5.40771557779427        2.47297403402264
C            9.15204899660243        5.36594504889177        1.73612048016854
C            7.01714043982125        8.37074499860206        0.75002709159122
H            7.04541835342670        9.35867463212113        1.20896081045451
H            6.06884211060068        7.89315088718729        0.99781486987097
H            7.06183387208579        8.49974061893130       -0.33352334138865
C           11.73402917982946        8.05910563539663        2.44588493942748
H           11.54550559315044        9.04203058336921        2.87720681605672
H           12.36142505078930        8.19182699971456        1.56197303513003
H           12.28570824219814        7.45509520182475        3.16597797076284
C            9.03055506445579        3.87044475956683        1.83247115376602
H            8.46718356774948        3.60305965562534        2.72884165392801
H           10.01411023573127        3.40713591808114        1.89912388297446
H            8.50306031448487        3.46162128143409        0.97063848483286
C            3.79034522867696        3.88164600173458        1.30402080805906
C            3.70153705482327        2.49709797368503        1.45453301158651
C            2.48731580955739        1.94882138494868        1.85374173747349
H            2.40385827133683        0.87370279854427        1.96915745588067
C            1.38092392002715        2.75626238692675        2.10528048739481
C            1.50295630771005        4.13568444472375        1.96625074570649
H            0.64848395484873        4.77249978166637        2.16688318185085
C            2.70169744279623        4.71475853237810        1.56713347061506
C            4.88602519106630        1.60893293511109        1.19120604166313
H            4.82321416279533        0.70113960897840        1.79069185211045
H            5.81753375498532        2.12418926192995        1.42693770879682
H            4.91337116765284        1.31819740739174        0.13885504722320
C            0.06896943317187        2.14338407465215        2.50631319849664
H            0.22629851162260        1.25362379437939        3.11576469650887
H           -0.48791007843053        1.84844526522433        1.61446748149435
H           -0.53805998655372        2.85446656422446        3.06622383268198
C            2.82278971515087        6.20821488791665        1.44280438487302
H            1.83862673371902        6.67177509251383        1.38829841893670
H            3.39489851653040        6.48447173898031        0.55702155497393
H            3.34071827701028        6.61054381704996        2.31582518962798
