70
 energy: -103.044832888949 gnorm: 0.000217355390 xtb: 6.5.1 (579679a)
Au           2.06943709718796        3.52258371950984        4.28779100910223
S            2.94678347222619        5.10808962506921        5.63798415080772
Si           4.21790909331481        6.19849500309252        4.37292781789973
O            3.42431964656313        6.84090252702470        3.10637246039396
O            5.45207396654775        5.30430436804653        3.80373991866032
O            4.83066251032336        7.37336888621447        5.29003122154669
C            2.67784598198067        7.39037663279465        2.06884647498250
H            1.83386988047763        6.71326984793759        1.83262064969078
C            3.55495116672062        7.52969385636683        0.81894825142445
H            3.95422665324847        6.55390988819289        0.54269573060735
H            2.97138110737297        7.92374244080880       -0.01317520923340
H            4.38886585643455        8.20155622796959        1.02171891554718
C            2.11062094871627        8.74900593317135        2.49374275116957
H            1.50446440378817        8.62615319885644        3.39068669314251
H            2.92391119931090        9.44028787841419        2.71465181025410
H            1.49210134076850        9.16704255986624        1.69946565708295
C            6.32824139706833        4.47760532923052        3.10619677917530
H            7.13302964242942        4.15122281089021        3.79087520577537
C            5.58977400381151        3.23378539647371        2.59527885265845
H            5.14570730161363        2.69921521359421        3.43451250875284
H            4.79357517027544        3.52603556657640        1.90973603534322
H            6.27868445320344        2.56679762596741        2.07661319636937
C            6.95812450676771        5.24957967623998        1.94128132337109
H            7.46501876699691        6.13538083864462        2.32249978363816
H            7.67970044819328        4.62318780648257        1.41662449789198
H            6.18430507136726        5.56536733624628        1.24132044003900
C            5.34941375998972        8.42284099597099        6.04765599207422
H            5.11660573090455        8.24502670318166        7.11307422441612
C            6.87098040636195        8.47800020749106        5.87777429525020
H            7.30814669461818        7.52951316454401        6.18819105153471
H            7.12375607505882        8.65266887653859        4.83186266348825
H            7.29057070937523        9.27944792393560        6.48588440458847
C            4.70080702996509        9.74213332208825        5.61548560034324
H            3.61965665904921        9.67289774383591        5.73196543341685
H            5.07251902306478       10.56486592928456        6.22627661880098
H            4.92657949934601        9.94444553882677        4.56828750307354
P            1.26446247155827        1.95649958966851        2.79158642285161
C            2.53090692384881        0.76573184872463        2.23711919024839
C            2.64272588377670        0.31515375472740        0.92034293759711
H            1.94012841072591        0.66022238736565        0.16992265546870
C            3.65307484145313       -0.56463150545373        0.56184396573237
H            3.73054336529715       -0.90464771751005       -0.46496822044412
C            4.56421322014793       -1.00655539261317        1.51150113039029
H            5.35531805241636       -1.69137613254770        1.22762659395771
C            4.46354342581996       -0.56463750372254        2.82405595012488
H            5.17570602243538       -0.90273444108859        3.56836203192098
C            3.45641573842415        0.31764495594457        3.18191148491219
H            3.38444593348800        0.67185394210542        4.20463239298783
C            0.77341579673865        2.75432089573063        1.22887379538019
C            1.59374665898823        3.78543340081668        0.76243301727490
H            2.47918613512655        4.05620768890468        1.32727038555649
C            1.28539571263538        4.46114444732349       -0.40639368422682
H            1.93339859795382        5.25597788412754       -0.75823118851761
C            0.14320910914400        4.12446681390470       -1.12186586924477
H           -0.10339517394192        4.65642124954845       -2.03382401064075
C           -0.68416383175676        3.10873463537376       -0.66361699535336
H           -1.57837845389771        2.84490324584585       -1.21754908113713
C           -0.37238960679053        2.42609373805897        0.50346133225862
H           -1.02574136096027        1.63434810995190        0.85281930225577
C           -0.16547236039933        0.90337995558897        3.20858902205010
C           -0.31288018611790       -0.41371934994535        2.76990559083683
H            0.44565549700895       -0.86078356069284        2.13694054875294
C           -1.42354357037729       -1.15692744889082        3.14034836929111
H           -1.52647490339910       -2.17914914898338        2.79334917703265
C           -2.40028600473298       -0.59652819881820        3.95237485100637
H           -3.26712169891180       -1.18020772128822        4.24100740570115
C           -2.26168300176195        0.71111702938145        4.39877196003453
H           -3.01932981366640        1.15124630138786        5.03738877331570
C           -1.14972266973915        1.45302369005967        4.03343152640097
H           -1.03612983489227        2.47127195810463        4.39043452274730
