77
 energy: -216.357052187447 gnorm: 0.000104905070 xtb: 6.5.1 (579679a)
C           13.11454174594952       15.47602709946820        3.46565200487255
H           13.76175288611067       16.32889509243858        3.57908846362594
C           13.53875375950730       14.11348003099222        3.50235461297119
C           14.85780120175250       13.69373716612040        3.59761580694630
C           15.91800239757873       14.71134133597473        3.83259305534839
C           17.93416634813213       16.61023976966635        4.32557103574830
C           17.17463883421287       16.68215039990405        3.16031699902785
C           16.18013669737802       15.73976076061337        2.92837165265853
C           15.26357987240902       12.37686483963128        3.42518857642734
C           16.62068727088851       11.96977050106076        3.25303868901542
H           17.47279835970444       12.62574978083617        3.31529890570607
C           16.61005269228677       10.64633575576203        2.96343362788758
H           17.45439054153498       10.01221893772511        2.75307982554355
C           15.25061747902635       10.21375897944859        3.00792405109347
C           14.82547359400438        8.90007891081988        2.86963285575066
C           15.82745575218220        7.85476801479453        2.52818030778335
C           17.69568502416653       15.59030649810169        5.24383275033820
C           16.70153613061781       14.65467173450068        4.98615153177679
C           16.91306559796269        7.56322368592643        3.35362492053008
C           16.61664951498136        6.13429149359060        0.99734976555147
C           17.83994368566877        6.58153331039933        3.02388618534902
C           17.69411029556433        5.86545153820662        1.83828333362624
C           15.69852861578053        7.11439950175109        1.35208707647605
C           13.51707761866871        8.48750506656099        3.08597089587587
C           13.10313955285057        7.12487346267592        3.17714467972514
H           13.74459119906006        6.27417275802645        3.01901515012500
N           12.44760355241896       13.29192021783526        3.34842029506799
N           14.43798019210439       11.29241430328830        3.26679294357251
N           12.44759975564289        9.30733451371299        3.34844420775408
F           15.46990933589126       15.80669854089149        1.80768385696589
F           17.39710232037774       17.64119152800297        2.27957345754674
F           18.87673739686029       17.50122883766179        4.55650834404632
F           18.41283258575415       15.51004376871907        6.34986508213415
F           16.47568317910795       13.68417900944187        5.86277536722624
F           17.05256882683269        8.23086565638600        4.49254352197394
F           18.85475846847297        6.33087042993878        3.83113629264191
F           18.56976723332820        4.93587863293996        1.51474981925430
F           16.46576304565841        5.45892167585683       -0.12773113334712
F           14.67305813851865        7.36901892224374        0.54768028866383
Au          12.44759652881666       11.29652341420822        3.34843936629547
C           11.78065270122482       15.47602321323038        3.23118494513411
H           11.13342577087384       16.32888185325856        3.11776809565708
C           11.35644873159810       14.11347408740548        3.19449131291739
C           10.03739624149751       13.69373724018910        3.09926691897984
C            8.97719854008926       14.71134988708958        2.86430051976320
C            6.96103846268506       16.61024505637245        2.37129182783854
C            7.72057251357703       16.68217686584820        3.53654029359511
C            8.71507136024852       15.73978712818374        3.76850471295068
C            9.63161356658887       12.37686685319482        3.27170069786203
C            8.27450743619350       11.96977664604835        3.44386404684845
H            7.42240069202044       12.62576248419120        3.38161339861798
C            8.28514159120318       10.64634275352358        3.73347839146428
H            7.44080035313291       10.01223787265271        3.94385331878133
C            9.64457495812336       10.21375856677582        3.68896989432910
C           10.06972733826614        8.90008052450439        3.82727315000778
C            9.06775158576908        7.85476715827016        4.16873676881265
C            7.19951435451688       15.59029519565271        1.45304734279883
C            8.19365972982208       14.65466294335781        1.71074620132545
C            7.98214935430329        7.56323741214931        3.34327808579778
C            8.27854579617935        6.13425814219255        5.69952231427994
C            7.05526703845111        6.58154296618463        3.67298696422381
C            7.20109022477287        5.86543732230790        4.85857614901685
C            9.19666930409683        7.11437718567927        5.34481790982338
C           11.37812237768435        8.48750479447034        3.61092151204183
C           11.79206876103536        7.12487295016357        3.51977346679564
H           11.15062996476036        6.27416809201031        3.67793309849723
N           10.45721156394326       11.29241337262808        3.43009165012896
F            9.42529077979898       15.80674042753062        4.88919661072169
F            7.49811035838061       17.64123550944291        4.41726490849142
F            6.01845725561218       17.50122167268020        2.14035033040522
F            6.48236242115870       15.51000783756862        0.34702037893596
F            8.41950134660690       13.68414253630440        0.83414944769895
F            7.84265896147850        8.23090711684220        2.20437366336916
F            6.04046161980520        6.33090053702802        2.86571933160117
F            6.32542362579835        4.93586654485272        5.18208874466774
F            8.42942107652663        5.45885996570539        6.82458785793173
F           10.22212501439869        7.36898340839886        6.14924726831287
