81
 energy: -88.818812246247 gnorm: 0.000099255571 xtb: 6.5.1 (579679a)
Au           4.32618244118808        0.00009962018227        0.00021878020315
P            3.72757345632595        0.65023284296209        2.18267376805629
C            4.34904733060817        2.42374435181036        2.47601308560340
C            5.76190400009350        2.55201448165895        1.87503006046752
H            6.05984364620321        3.60135351058431        1.88843980331997
H            5.77249321628472        2.21117952691131        0.83835294959760
H            6.50772627759094        1.99189222119595        2.43069487401077
C            4.38880610398402        2.87213006862910        3.94257530037844
H            5.11167489647493        2.29678625326058        4.51698281324320
H            3.41317632636540        2.77951760840758        4.41480295905560
H            4.68750517268880        3.92084074851759        3.98387546225540
C            3.47736571100648        3.41622609919407        1.68793809832010
H            3.95444802551189        4.39729438553680        1.70640686157712
H            2.48885039743688        3.52569960399261        2.12697731021887
H            3.38118604398861        3.11037533277595        0.64585618741060
C            1.83322942348620        0.57738687712676        2.33700597557593
C            1.37302294677970       -0.88910801238588        2.39640509848201
H            1.62144922926251       -1.35424075191033        3.34711594557061
H            1.80865280735747       -1.46902530491581        1.58237902082125
H            0.28781795455765       -0.92336849000254        2.28865397171079
C            1.24314308104993        1.31957411803359        3.54300417924773
H            0.16589773224331        1.14795726869252        3.57156507559287
H            1.40794879127917        2.39254606692672        3.47178390483135
H            1.66753826903801        0.96166740511449        4.47854349774333
C            1.21562957980737        1.14888726789885        1.04637344502965
H            0.14087668503649        0.96200604933906        1.05369752410650
H            1.63762937983601        0.65900689378398        0.16721089458046
H            1.36191728303349        2.22024702531377        0.94866479197362
C            4.53973628197179       -0.54941988587777        3.41509767348535
C            3.96711880474700       -0.51741190226389        4.83796281474193
H            2.93400746414229       -0.85748764402348        4.86085786963877
H            4.01619499394433        0.48170535103135        5.26550278186535
H            4.55333172942292       -1.18616148943847        5.47030325986001
C            4.41577394575191       -1.98045478916119        2.85780862492726
H            5.01987693961130       -2.65312079625211        3.46825265325311
H            4.78766090027937       -2.02885049220039        1.83294981006864
H            3.39527655373079       -2.35073970989208        2.87309813639139
C            6.05024316843064       -0.26975456668574        3.49294183827079
H            6.26472248362698        0.65747171069201        4.01845868118624
H            6.49340428818035       -0.23504847781443        2.49738744329647
H            6.53113316370801       -1.07828112257904        4.04564211799211
P            4.92483102612431       -0.65020337306565       -2.18258020233955
C            4.30335932040225       -2.42370894701160       -2.47601496689424
C            2.89049699014273       -2.55202912707631       -1.87504837060220
H            2.59255080606999       -3.60136859024377       -1.88845654547126
H            2.87992105551021       -2.21119698893303       -0.83837210799470
H            2.14467711070132       -1.99188642784454       -2.43069810387399
C            4.26358865930298       -2.87213760024468       -3.94256589140071
H            3.54072289742805       -2.29680542841776       -4.51698151151046
H            5.23920275999361       -2.77951807568773       -4.41481542674214
H            3.96489756670973       -3.92085043738298       -3.98387770507616
C            5.17503151039042       -3.41621742312166       -1.68795890912196
H            4.69794279234893       -4.39728456117107       -1.70641060610900
H            6.16354964282753       -3.52569947493644       -2.12699172062771
H            5.27121607177167       -3.11036528269594       -0.64588186249673
C            6.81916916901151       -0.57739011270440       -2.33701441119278
C            7.27937162404516        0.88910596351314       -2.39641739386635
H            7.03094441628516        1.35425025494875       -3.34712396434123
H            6.84374309106114        1.46901466325465       -1.58238796342783
H            8.36457568853868        0.92336469565586       -2.28865670738412
C            7.40925464494088       -1.31957271989309       -3.54301626450907
H            8.48649741714903       -1.14795063806668       -3.57159327760257
H            7.24446116237472       -2.39254492952545       -3.47180842114549
H            6.98485439230088       -0.96168367137792       -4.47855638924302
C            7.43677656342321       -1.14890491343622       -1.04639097745977
H            8.51153041415425       -0.96202584758783       -1.05372327714371
H            7.01478314199397       -0.65901297633839       -0.16723212707170
H            7.29047234447536       -2.22026390646419       -0.94867429970225
C            4.11267962025452        0.54939578284543       -3.41507465374125
C            4.68526372741750        0.51741476296961       -4.83795558614137
H            5.71836984333087        0.85749243729240       -4.86086985256864
H            4.63621127421586       -0.48169540769283       -5.26550494033297
H            4.09905003689741        1.18615478790520       -5.47030563928984
C            4.23663977145002        1.98044614221610       -2.85781929514029
H            3.63253446661423        2.65311664005890       -3.46825954781648
H            3.86475079360558        2.02883696793520       -1.83296238517847
H            5.25714134502052        2.35072475269576       -2.87309531076174
C            2.60216567122868        0.26975836457177       -3.49294231627253
H            2.38767218788812       -0.65746862129366       -4.01845371897350
H            2.15901703755127        0.23504773745350       -2.49738737469823
H            2.12126501898134        1.07829227472738       -4.04562531869648
