66
 energy: -85.909654897483 gnorm: 0.000175603696 xtb: 6.5.1 (579679a)
Au          -4.34519919495056       11.59037125968530        1.82048696590290
P           -6.42115392661271       10.61657608030907        1.43537853038533
N           -2.38565377812199       12.50875094561362        2.18396928674088
C           -6.40055748295519        8.80523483058991        1.60737280979291
C           -5.80929432740016        8.18937098313430        2.72463282158275
C           -5.78235374968459        6.80055326711304        2.79883318274015
H           -5.32678126182250        6.32609722854054        3.66099351856992
C           -6.32935420228584        6.01702054934286        1.79388892548517
H           -6.29595143590378        4.93687004761459        1.87237807480718
C           -6.92191233940207        6.62088941169840        0.69499459747106
H           -7.36022570003102        6.01969200711977       -0.09251501044173
C           -6.95496474393005        8.00225774412858        0.60386571163253
H           -7.42474666109419        8.46645017484185       -0.25529409630845
C           -7.06244621674858       10.94509546005937       -0.23548850698824
C           -6.25510856299984       10.75994075078192       -1.37174044979918
C           -6.77283234643917       11.05822733874371       -2.62794066508509
H           -6.15000126414332       10.91461502762137       -3.50397252166574
C           -8.06795238573508       11.53094480771135       -2.77709702329550
H           -8.44979944290746       11.75780504974371       -3.76539254810790
C           -8.87043585350369       11.70582374001971       -1.65960535407901
H           -9.88669520036127       12.06647966796334       -1.76387652508739
C           -8.36999143498135       11.41626243645427       -0.40132050497170
H           -9.00525095726856       11.55027941166386        0.46632420554276
C           -7.70694614568943       11.20509147396490        2.58051868006275
C           -7.88676248215266       12.57793616630794        2.82568377292811
C           -8.85687350323763       12.98322215278001        3.73654963503264
H           -8.99558726742287       14.04213850058582        3.92477710366687
C           -9.64789771422161       12.05883212511688        4.40200519115623
H          -10.39666465004505       12.39746699315661        5.10817538215475
C           -9.47996416226732       10.70439407213952        4.15573782043846
H          -10.09750796071164        9.97293833571439        4.66302520506204
C           -8.51700150764711       10.28347355534123        3.25401643005647
H           -8.39584114420631        9.22368958024482        3.06295926542186
C           -5.20599686433012        8.99176146978588        3.84329866257006
H           -5.87354603909574        9.79519358907740        4.15622234733030
H           -4.99667167395672        8.35940528850182        4.70554690936804
H           -4.26198962942150        9.43960982232550        3.51953894841114
C           -4.84641952101804       10.24646009490178       -1.26616030144466
H           -4.46075333740542        9.96676190214236       -2.24605910791652
H           -4.19205879020786       11.02207015739347       -0.85776299355098
H           -4.79235115215597        9.37657765025484       -0.61084824353030
C           -7.05923157486153       13.62110405823130        2.12840052237615
H           -7.48041310772476       14.61473337771569        2.27830657726645
H           -6.04148388037188       13.62492324254200        2.52929310575089
H           -7.00164962178312       13.42675392461543        1.05697088497378
C           -2.35277401655392       13.90338048576893        1.65968511112249
H           -1.31844198079665       14.26256164370825        1.68248906945427
H           -2.94816972063017       14.51967417261124        2.33564576949667
C           -2.92583046787850       14.03123347737932        0.25804580723536
H           -2.91348247432921       15.08169972475356       -0.03185521198531
H           -2.35313903791632       13.46647883191821       -0.47557924720386
H           -3.95961543108242       13.68331065089606        0.23524122583402
C           -2.08736177707201       12.55189498637169        3.64345616185517
H           -1.20404120933817       13.17939545152933        3.80270808443300
H           -1.85003162470570       11.53397148835872        3.95769150362812
C           -3.25180977262539       13.05661534791972        4.47931102223612
H           -2.97454502761241       13.00977878666443        5.53221377051066
H           -3.51695290799958       14.08502419413667        4.24014101875244
H           -4.13014416283063       12.42700679348759        4.32963479813353
C           -1.30723080750058       11.73158041012696        1.51020082125942
H           -0.33752838293028       12.09788368041191        1.86357394847465
H           -1.38293908140781       11.92995924577454        0.43961571077843
C           -1.41899514538989       10.23251516638040        1.73301723384716
H           -0.63006936635515        9.73409853652635        1.17012198512927
H           -1.31476624542982        9.96185030132606        2.78230478935195
H           -2.38035716039692        9.86374087060943        1.37236540524742
