62
 energy: -83.472353452151 gnorm: 0.000114338423 xtb: 6.5.1 (579679a)
Au           0.23025615690882        1.44593719054238       10.19582837639957
Se          -1.08678745536148       -0.37004746134266       10.98114558436016
P            1.55235995119964        3.28323696931117        9.60650682073237
C           -0.98986245584841        0.03514195126306       12.84767268528645
C           -2.36357734231851        0.47477476304618       13.61472015044614
B           -1.75159007995316       -1.14114263274426       13.88176551104761
H           -2.33008752282432       -2.01043571959335       13.34117691784238
B            0.02972434654666       -0.93891557124767       13.88878727188653
H            0.69207885081792       -1.76280359301044       13.37145603814031
B            0.39389459785191        0.79930490091445       13.58367679557209
H            1.29210016312491        1.08334660251136       12.86982516186259
B           -1.14806006418162        1.69270464069459       13.39963593630129
H           -1.35602973567009        2.49662119516377       12.56196196534160
B           -2.44229472071863       -0.16980057710357       15.23862391271446
H           -3.50631147570934       -0.46283551985785       15.65028066929279
B           -0.88230816710392       -1.07184400281085       15.45648975164586
H           -0.80261286756150       -2.02401757398762       16.14400272530106
B            0.47050238353909        0.14925628745778       15.27493442299245
H            1.49824021379670        0.03057276496189       15.83914148063569
B           -0.26453990178994        1.79642970116055       14.95722820927621
H            0.24557694448901        2.80463770148171       15.29359956465401
B           -2.06651115393409        1.58076049271493       14.94707410010131
H           -2.89365367894454        2.39091542370806       15.16381276579028
B           -1.07358022788436        0.62814425773651       16.11916153849024
H           -1.12787543078935        0.84018514194016       17.27675743131711
C           -3.62114091752419        0.60006740870043       12.78705713513297
H           -4.39200278614831       -0.07481359635821       13.15783911718742
H           -3.39988529979968        0.34344341574591       11.74745891890963
H           -4.00315499648786        1.62008476726049       12.82247291581823
C            0.63298362286166        4.77950122744578        9.11769702362066
C            1.13512174593872        6.06965083212874        9.30751390872921
H            2.11281019334928        6.20661660642289        9.75641407219296
C            0.38765665624939        7.17552416532694        8.93361782147299
H            0.78689488363714        8.17179614788068        9.08761750124555
C           -0.86912577099572        7.00966044799019        8.36645286298786
H           -1.45296262204677        7.87639607433260        8.07806913604375
C           -1.37872892786848        5.73268243446161        8.17505312484329
H           -2.36146661167551        5.59864285519433        7.73721207436867
C           -0.63319170839406        4.62612924303405        8.55100226729892
H           -1.03533792977709        3.62841308518964        8.41059199858361
C            2.51878193902180        3.86194135397184       11.03688920545975
C            1.81834738539205        4.07485709095011       12.22827645040358
H            0.74441069374598        3.92563463835009       12.24858879499727
C            2.48144954143867        4.46983623176343       13.37770344450192
H            1.92424936790468        4.62534181812207       14.29443949077474
C            3.85813175319463        4.65318401233184       13.35576087601956
H            4.38045550739117        4.95643271869167       14.25592877536765
C            4.56415687706328        4.44250097741050       12.17974907551390
H            5.63914306656403        4.58334790466749       12.15817539395351
C            3.90147301124998        4.04786039380814       11.02639595044666
H            4.46468891551826        3.88224866572327       10.11495919555871
C            2.79748121693031        3.06828030329617        8.29360406073321
C            3.57585149922649        1.90722075754885        8.33157638088923
H            3.42578331936802        1.19081458569480        9.13254321920174
C            4.53265962981830        1.66568520875115        7.35930623398010
H            5.13307505223957        0.76410635657145        7.40473488754091
C            4.71686312247265        2.57480948971584        6.32547531522423
H            5.46252676100987        2.38531115980590        5.56175521877284
C            3.94012712786527        3.72359618454618        6.26979062234763
H            4.07716867191917        4.43365057623906        5.46180704736043
C            2.98612607813457        3.97047672043697        7.24600327369789
H            2.38622860350548        4.87194040403801        7.19240142132527
