77
 energy: -110.798725723687 gnorm: 0.000149484407 xtb: 6.5.1 (579679a)
Au           4.14202256893453        9.31702489800821        2.63289862634992
Cl           7.11531519590827       15.08230106320392        4.21221004182517
N            1.46096569918911        8.05937268767882        2.01734143688253
N            1.24062251346493        9.93568805456786        2.99684089560230
N            6.10769981471714        9.64922436697069        2.73289569014364
H            6.93139173272145        9.08206709995903        2.61672977130551
N            7.66704339621812       11.28992383632314        3.21720342810999
N            5.30973852493550       11.70950845813088        3.23096764727312
C            2.16624048770466        9.07208222799410        2.54953209697523
C            0.10689829410594        8.28103826889280        2.12729267054180
H           -0.61945655814886        7.57873285400247        1.75781761887326
C           -0.03239081829133        9.47542926637960        2.75175374400593
H           -0.90702112538676       10.03193535105284        3.03947506689977
C            2.07034160049980        6.92470508464602        1.40335436282549
C            2.34258975346910        6.97138262104128        0.03515221509341
C            2.97563738376149        5.87239694083025       -0.54016855694263
H            3.21276134583421        5.87686625027062       -1.59772897099324
C            3.31866848336025        4.77255423085472        0.23097533420375
H            3.81339763762178        3.92550347673300       -0.23063495936631
C            3.04696161022228        4.75320356746161        1.59012760340321
H            3.33773546715878        3.89176688269090        2.18025751532579
C            2.41649776579284        5.83407592314636        2.20191692020559
C            2.01042636181289        8.20001844036943       -0.78515509783789
H            1.38758296551635        8.87032960862069       -0.17967680394604
C            3.30167217465648        8.94925582587196       -1.13789286815185
H            3.06692624513753        9.86014743942862       -1.68880487859180
H            3.95750751379978        8.32753510458587       -1.74769395081159
H            3.83113098841541        9.22088702312232       -0.22370330308741
C            1.21803093212633        7.84063024163467       -2.04685418864745
H            0.32606057739282        7.27310443030635       -1.77989435287336
H            1.81773027190814        7.24456274344740       -2.73478646166802
H            0.91114849877187        8.75239188528277       -2.55973831983127
C            2.15668211894865        5.84282234348422        3.69352644919299
H            1.56027340965195        6.72964216384485        3.94218905985785
C            3.48551706808416        5.94162444499421        4.45306735900171
H            4.02021083930410        6.84062227674387        4.14384709416012
H            4.11560516486428        5.07538486421784        4.25024361139106
H            3.29956014818149        5.99788898270207        5.52579027903651
C            1.36226818916309        4.60688977122438        4.13034519400806
H            0.43460528815394        4.53815594408086        3.56147917225611
H            1.11752810818699        4.68230063784519        5.19003638515423
H            1.93587611282190        3.69332657996661        3.97333094984621
C            1.55497915017110       11.17084606228136        3.64197557834607
C            1.72040415075719       12.31423968191610        2.85977919280351
C            2.00765895308420       13.51202458994677        3.51027881469349
H            2.13769129882710       14.42127310773405        2.93501836474274
C            2.14136101166079       13.55169349362078        4.88985011677699
H            2.36879784569980       14.49065807396315        5.38137601310743
C            2.00859080779879       12.39519586648257        5.64239818037133
H            2.14561322443535       12.43902291744748        6.71664051526094
C            1.70810881885844       11.18164995215296        5.02898779575967
C            1.64450301115559       12.25184133284854        1.34964356021245
H            1.38185998618990       11.22924354783294        1.05079673421748
C            3.01648188025722       12.58063523068236        0.74760332891219
H            3.77505145340576       11.92766762363670        1.17965593305436
H            3.29495445842651       13.61434654219683        0.95316667370297
H            2.99581423625697       12.43105180055605       -0.33217033456658
C            0.56119685111247       13.19165450956579        0.80818025536980
H           -0.40451228271697       12.94381085660884        1.25022556152520
H            0.48749417266659       13.08566179612569       -0.27442986389239
H            0.79305854554708       14.23157690763381        1.03887603372464
C            1.61021342452688        9.90481423419007        5.83630586482845
H            1.24644477871682        9.10059592825505        5.18423056911983
C            3.00467572852591        9.50945830550581        6.33855160820484
H            3.68163909598311        9.39539753332457        5.49118856258688
H            2.95520316471801        8.56249627233209        6.87664306239341
H            3.40868387918803       10.27239898293089        7.00406648317412
C            0.62224689632498       10.04529977455211        6.99957747546075
H            0.50849929439077        9.08547386397453        7.50412968863183
H           -0.35245482475531       10.36132827573077        6.62650480398184
H            0.97079115379248       10.77773003929381        7.72773120524519
C            6.38341842910450       10.89655372465048        3.06462779696022
C            7.88139245048665       12.54471817861928        3.55925634856530
H            8.91269244091949       12.86274164632482        3.68295738439325
C            6.82874754214431       13.43165365175031        3.75642760908726
C            5.53581166191307       12.96247603501528        3.57584609105315
H            4.67658356001275       13.61306549036922        3.71273745772707
