35
 energy: -63.850809529314 gnorm: 0.000409867840 xtb: 6.5.1 (579679a)
Au          -0.20081607994576       15.92819952038471        0.42263345774529
S           -2.35787480726701       16.55429324591243       -0.02611542964772
S           -0.33795783899694       18.33646884691300       -1.42304071045019
P            2.08837206401657       15.57702770138178        0.60681543585468
N           -2.86085647543405       18.45118799213953       -1.82040952965252
N           -2.31814394789207       19.41338259777776       -2.63020169463655
N           -0.27858010312677       20.33129041375816       -3.29454696878800
H           -0.82399756258401       21.09234181568834       -3.67188195924398
H            0.58614716750793       20.62492195133663       -2.86985245545991
N            3.54932386397281       15.78878876778488       -4.36713928040279
N            3.55310446382359       20.36760634311019        1.98285339496126
N           -0.26624882815441       14.51521428416715        2.91023993993132
C           -1.98353786337636       17.80860182251527       -1.13862354273841
C           -1.04063589036690       19.47900124668960       -2.53261368876470
C            2.92726888025378       15.31166919236866       -1.02461121592378
H            4.01434133883854       15.25375985896626       -0.91705292063156
H            2.59022822535883       14.34973268611776       -1.42198186989356
C            2.57215663490540       16.41252828419520       -2.03740054494064
H            1.48506348624146       16.52809023317510       -2.11173943715936
H            2.98578016610719       17.37429098508166       -1.71981532361007
C            3.11010039066219       16.07812382449331       -3.34818102166960
C            2.99673993048278       17.04511998196988        1.29929312701614
H            3.17494150807747       16.89229870504006        2.36724301420312
H            3.97493001144576       17.16809983023846        0.82615363373057
C            2.17515321324158       18.33395210299635        1.12652866972483
H            1.91116768220395       18.49149880391648        0.07618391747804
H            1.23850437120543       18.25396727167767        1.68593791240092
C            2.93022918583326       19.48190352043529        1.60504019870339
C            2.81837785990347       14.16454185208124        1.58250501213958
H            2.53897827275587       13.23514200083225        1.07886007979603
H            3.91018434785487       14.21164439380544        1.60034587987700
C            2.29618614598449       14.11823021357997        3.03015769107172
H            2.55012259706807       13.15764335142545        3.48751255107653
H            2.75601570892456       14.90958960289408        3.62953726106801
C            0.85583188047599       14.30774675518001        3.03006641682019
