75
 energy: -149.439992899580 gnorm: 0.000134184976 xtb: 6.5.1 (579679a)
C           -3.07799785309096       15.34315297391095        7.39381368272925
H           -2.48899619805230       16.18460768183687        7.05277096964689
C           -4.42476803888932       15.48554868047209        7.65061185414935
H           -4.89828543945921       16.44937319930417        7.51682974372843
C           -5.14412628876813       14.37607905806575        8.07784519087838
H           -6.20413261675323       14.44918103877908        8.28893092055414
C           -4.47697291913913       13.17616664437875        8.22767813777373
H           -5.01235987596204       12.29619558656928        8.55958687666665
C           -3.11200717135361       13.09178458931403        7.95423922858681
C           -2.31689170972064       11.88140325358374        8.08286840200291
C           -2.84814648739037       10.65254252585781        8.48513611649302
H           -3.90205103474776       10.56292457239912        8.72040442174545
C           -2.03122172428573        9.53899615259606        8.58464086718174
H           -2.44996385659006        8.58976613430609        8.89678779585226
C           -0.68145797674721        9.64213040651611        8.28443818135376
H           -0.03572004822660        8.77522901769484        8.35945878970800
C           -0.14674875502833       10.86195600560902        7.88414337233246
H            0.91011327994837       10.92257294108974        7.65530570529963
C           -0.95162442293910       11.98414127450514        7.78092985427718
C            1.54060759232056       13.34341260182244        6.93946308053768
C            2.02629864695066       12.95072057434664        5.69047916014590
C            3.37158824146532       12.67846154281555        5.47236411817935
H            3.71759787031866       12.39040252641979        4.48684180502082
C            4.26945187638730       12.78510032590294        6.52688789549989
C            3.81797575094798       13.15107847217226        7.78839054249183
H            4.51364710101377       13.23227913147744        8.61511434757464
C            2.46834058439164       13.42431312751843        7.98010340641162
C            1.05364343254935       12.85945340120825        4.54999770992102
C            5.74493199928894       12.57239167396703        6.28606993853247
C            1.98440381231484       13.86021370238824        9.33468795919798
C            0.17349958093171       17.38574070809508        7.76172932657979
C            0.90043564438793       18.57718361005935        7.65633511639627
H            1.53137738519109       18.75417241517695        6.79307309816259
C            0.83929562910235       19.53028748517108        8.66055019815402
H            1.40957167030580       20.44659661004128        8.56221766996692
C            0.06031359270061       19.31077792842016        9.78815868052846
H            0.01736443383127       20.05643641877933       10.57309748929731
C           -0.65140888435278       18.12598870819257        9.91344135651579
H           -1.24856753846554       17.93853597717189       10.79823806758142
C           -0.59342830223079       17.17127516573603        8.91058072590869
H           -1.13484337532640       16.23943789335437        9.03244417197364
C           -0.87247134056830       16.78427794127172        5.13209446360743
C           -1.77081682123260       15.94064194261964        4.47164794117599
H           -1.82841332737050       14.89317776843813        4.74587803347928
C           -2.58816979280184       16.42609214976574        3.46287811363036
H           -3.27497971542474       15.75508026039719        2.96032289273740
C           -2.52449520709260       17.76351739472722        3.09909695074080
H           -3.16287986390962       18.14355778126076        2.31040147463885
C           -1.63969007694206       18.61332724474064        3.74930305903430
H           -1.58490174923259       19.65920172739746        3.47063727171899
C           -0.82028909739010       18.13097530325073        4.75684444428026
H           -0.13568465780920       18.80723688231150        5.25491280257753
C            1.89277280006454       16.30334200851511        5.76294425837524
C            2.13048176568402       16.33996249196030        4.38640355632953
H            1.29765450178122       16.32438443398251        3.69344761841745
C            3.42726292050964       16.39517536646837        3.89899555313083
H            3.59475575095401       16.42346618144997        2.82867001761309
C            4.50410544922657       16.41030359090842        4.77413589712097
H            5.51701895428290       16.44469250848428        4.39129585096740
C            4.27994704930295       16.38260733890864        6.14435259662762
H            5.11630752735836       16.39826478259491        6.83334958430305
C            2.98629409938229       16.32837116820695        6.63690694820794
H            2.81991746674657       16.30780615395008        7.70793693343535
Au          -0.39947968764625       13.86193304512726        7.19818308133501
F            0.07820869762424       11.97846406765250        4.80596677000348
F            0.42755128346821       14.05202613542277        4.38094334826729
F            1.61267505412882       12.53934565185923        3.39696350642283
F            6.32209170592636       13.73234302327077        5.94020318831037
F            5.95926220585159       11.70586412562012        5.29876630943597
F            6.35956366500975       12.12646320339604        7.37894332824489
F            2.95737913815693       14.03231502621585       10.21267755413725
F            1.32055810429710       15.03685304932799        9.22636970772044
F            1.10373342999499       12.99291990318838        9.84684804942042
N           -2.43239032943209       14.18185049326252        7.53864335923967
P            0.21308249031377       16.12294811699866        6.44484955978319
