36
 energy: -59.161070943568 gnorm: 0.000247937216 xtb: 6.5.1 (579679a)
Au           6.25367091105683        3.14707112598251        8.63774646872526
Cl           4.62764380361813        2.19736181060503        9.85814261819259
C            7.66905123253579        3.97448666560391        7.51718680119436
N            7.90479849642305        3.61535535278779        6.23812392198651
N            8.62041278898271        4.86904944861345        7.84283873997228
N            9.54908582193898        4.13941251565655        4.54756309037345
O            7.86951582597420        1.09773651903578        7.27911356711338
C            9.01441695242476        4.25516505937238        5.75130343992597
C            9.47842575139637        5.08588322815452        6.78527653241447
C           10.60326429317557        5.86620980661061        6.57054517052869
H           11.01759251450860        6.52298264353439        7.32513826750589
C           11.17315063705714        5.74729166714582        5.30801743688330
H           12.05595814707245        6.32460109444640        5.06114170456020
C           10.62962974270041        4.89431460813427        4.34601515130744
H           11.09024970838186        4.81775949774958        3.36638856826483
C            7.19391673459177        2.57703113743684        5.53305957025603
H            7.45573338617470        2.62745512570034        4.47400439892542
H            6.11764320819336        2.72991654177333        5.65707974092175
C            7.52472613492666        1.21075316219800        6.13856056646867
C            7.35346131602892        0.04454401937538        5.20451997207062
H            7.39282604653058       -0.88569120859068        5.76729967378255
H            8.16426470295692        0.05912277959627        4.47586213442066
H            6.40930248480386        0.12050273799825        4.66751650132638
C            8.69124009497340        5.54138799516131        9.12784708522461
H            9.72918778879424        5.52406324368348        9.47429280399303
H            8.07579534830042        4.96716009636859        9.82379678017972
C            8.19732038299571        6.98753065768394        9.01539355892337
H            8.36190562059321        7.47932637966629        9.97865006459018
H            8.80359969049162        7.50743482856546        8.26738548016413
C            6.71860114587213        7.09193058695493        8.62400285277033
H            6.51337953878612        8.12659202015659        8.33217171632760
H            6.52898551147975        6.45880535697888        7.75102694340248
C            5.77545652046759        6.69813329495550        9.75873022039123
H            5.91599377212572        5.65419841043774       10.03893636395883
H            4.74105902287315        6.82813502965155        9.44105079033370
H            5.95113492079579        7.31978676080521       10.63757130263100
