41
 energy: -83.609035832518 gnorm: 0.000174191230 xtb: 6.5.1 (579679a)
Au           1.25915807730147       10.63411718531212        5.87625528384353
C            1.69401158997106       12.60352222016733        5.68835149739546
F            2.56539085823497       12.68767511928817        7.85626860306690
O           -0.60495370793815        2.35815564289502        7.19414810174469
F            0.85732547022876       12.67853140047745        3.50604449225732
F            2.58225096114241       16.64934994555237        5.33066069245595
C            2.28024213732576       13.32502320707254        6.71502220634534
C            0.85165184267524        5.68850379113076        7.66996680927624
H            1.49324529506917        6.24351185861417        8.34350851085005
F            3.15166490363261       15.32380509211604        7.64209171077582
C           -0.26696971156136        3.65129577746364        7.03932995761216
C            2.29842811610057       15.35471227434407        5.44505037913951
F            1.42945530612586       15.31395141507561        3.25473336109794
C            0.84640597344064        8.75989351070432        6.10441136277770
C            1.42371525685769       13.31974707779817        4.53415317922143
C            0.31403610858817        6.32065525035779        6.54947333069522
C            1.71028924808267       14.67040032879027        4.38821236402959
C            0.56323129204849        4.35706126397862        7.91495462354503
H            0.98751580764605        3.87659680747187        8.78679807668561
C            2.58747967047644       14.67561486808374        6.62252111581670
C           -0.51581448019480        5.62194752836963        5.66770976279548
H           -0.92592441573600        6.12593599864374        4.80134315075142
C           -0.80168256176480        4.29630925257825        5.91538358829112
H           -1.44207875887222        3.73231533947308        5.24859188116294
N            0.60181921878922        7.63922934974628        6.31218720929327
C           -0.13555014025524        1.59474610183666        8.30570642505561
H           -0.44034784346667        2.07404055934208        9.24723799632230
H            0.96169530866409        1.53214306583532        8.27951234775177
C           -0.74871441360209        0.20180757035673        8.18918141471959
H           -0.31742783648488       -0.43300211876984        8.96890503246320
H           -0.47853298655941       -0.22023031172194        7.21694477764691
C           -2.27330305392626        0.25082761694711        8.32853689776050
H           -2.53601987212406        0.66109736220615        9.30990995276862
H           -2.67980695698725        0.92382501129311        7.56708856569664
C           -2.89445816144812       -1.13980426409111        8.17058102155563
H           -2.47927472807294       -1.81355712371655        8.92791005223035
H           -2.63368876219904       -1.54459569152324        7.18698992694428
C           -4.41454373683665       -1.08898170691715        8.31302633006573
H           -4.69418689118646       -0.70832185463893        9.29638879094411
H           -4.83616781140795       -2.08745938434669        8.19480047732841
H           -4.84796561177171       -0.43689633760501        7.55350873979890
