114
 energy: -276.545700103949 gnorm: 0.000070175105 xtb: 6.5.1 (579679a)
N            2.55294180788135        1.46351092514081        0.43858467326865
N            0.89606717388833        0.56569314533911       -1.67870880923386
H            1.04527380922677        1.39939053302030       -1.12108105507611
N           -2.09037922965946        3.38998212080981       -3.16265431796736
N           -3.31419848896752        6.65779668777540       -0.66604533042935
N           -2.40815876418128        6.73193683580890        2.12535648332416
N            0.93779116212498        4.30961211421462        3.29059350781997
F            0.42269955689592        0.72597113322904       -5.39758204589463
F           -0.69498842160605        0.45044278331712       -7.82389951659856
F           -3.39665864337201        0.65514727155293       -8.11572474599303
F           -4.95701479866649        1.09232159154273       -5.93057745488882
F           -3.84647983239676        1.28319577637362       -3.49450630870682
F           -1.33487462409935        5.27589783420965       -5.04746298675419
F           -2.19281204436738        4.87789038249412       -7.56188340033441
F           -4.85575665859482        4.89901869016589       -8.11803453260283
F           -6.65083000120900        5.28848279165044       -6.10560980037158
F           -5.79206278474338        5.60671792714835       -3.57739005027085
F           -0.13647833835291        8.12062676981992        5.04730844127115
F            0.96410038532265        8.22472541998976        7.49871627980978
F            1.35436994487449        5.93166346528092        8.91769591489478
F            0.58614410920479        3.54608242977594        7.85992464463253
F           -0.58485576039711        3.45422831796748        5.44383563847417
F            3.42282200713893        5.50296070306269        3.41811364796576
F            4.40561680380642        5.83421488573851        5.89364761885361
F            4.91937329348997        3.67159244376749        7.46274661830348
F            4.39259798988650        1.16872008141755        6.52372327392076
F            3.33263861001118        0.84332649390509        4.07792745004769
C            3.21239429518949        2.05727503243016        1.45947628634581
C            4.54177089522702        1.48593446048000        1.59702524048199
H            5.28755835569888        1.81866904720175        2.30096405541687
C            4.63763107136648        0.50821436953928        0.67368897907926
H            5.48004557668381       -0.12803062911623        0.45674044634420
C            3.36019376729848        0.47212394003977       -0.01725661258641
C            2.98366193890824       -0.50236394549637       -0.94738124684185
C            1.78182479761050       -0.47798470624008       -1.66828580972706
C            1.28008355457926       -1.45277782058235       -2.57183638708876
H            1.72570836791976       -2.41729794098674       -2.75145420867908
C            0.14930882162262       -0.94517624655723       -3.14889803208391
H           -0.47900130183804       -1.42408602847601       -3.88213252741778
C           -0.08361026395841        0.35017221438294       -2.60829234349651
C           -1.04926190210685        1.27128236814561       -3.04045576027226
C           -1.41560369713076        2.48004668289627       -2.43572810280110
C           -1.22320112313333        2.98492380450935       -1.08332382043186
H           -0.81183897004568        2.39768746960023       -0.27906315561012
C           -1.75113654434211        4.23971429174921       -1.03351869826939
C           -2.30619177853238        4.45256687369374       -2.36637188539541
C           -3.06914075959421        5.52430884943103       -2.82327398412633
C           -3.50016155780029        6.57681223171770       -2.01554625439994
C           -4.24384578345173        7.71455484021223       -2.46298712737152
H           -4.50280406504554        7.91974491246263       -3.48880511968039
C           -4.52984355472726        8.45737228645361       -1.36509353719342
H           -5.06110477684605        9.39396361765228       -1.32074881341410
C           -3.95759216241394        7.78073394724706       -0.23723860874266
C           -4.07939477000696        8.20846115304094        1.08411255272451
C           -3.40926517365609        7.65456157872918        2.17667235244046
C           -3.65281665838620        8.01342429324753        3.54304477377448
H           -4.41902989308561        8.69329855355884        3.87778380752450
C           -2.76752660629622        7.31930752420259        4.30146792180761
H           -2.66299606575858        7.32760469866216        5.37408997689051
C           -1.97703524996721        6.53343382010863        3.40574540884883
C           -0.90437110851017        5.72120388343664        3.77298395235540
C           -0.19096196139169        4.92080775257036        2.88459432065778
C           -0.43084673657591        4.70460534746158        1.46184902861656
C            0.63202198410752        3.95724692485287        1.05037587719095
H            0.90270188710275        3.64235766469379        0.05604937620375
C            1.46463113838166        3.69740562712202        2.21491850150378
C            2.66263785582600        2.98484059701566        2.35525487628593
C            3.89632585991088       -1.63951812665457       -1.19390991659966
C            4.32594498966068       -2.44181564914725       -0.13443267789932
H            3.96994782482972       -2.23769857458018        0.86899238742724
C            5.17761811238651       -3.51049301559945       -0.36682452869510
H            5.49882874954883       -4.13113550855828        0.46196466158658
C            5.61689254729435       -3.78674825428462       -1.65457665827028
H            6.28556194741232       -4.62080838128693       -1.83359277135230
C            5.19785076688303       -2.99131134513317       -2.71243750446341
H            5.54216928666334       -3.19950117207190       -3.71913865073752
C            4.33943138576870       -1.92631697144085       -2.48699532513565
H            4.02912986737909       -1.29457494066196       -3.31178191657468
C           -1.67266466782183        1.02045591254633       -4.36306801495190
C           -3.05540848049075        1.11057532093397       -4.54458058017337
C           -3.63951041268126        0.98995409111433       -5.79836107623137
C           -2.84459403802097        0.77001619997978       -6.91824740093310
C           -1.46636678571632        0.66665383306803       -6.76694634487986
C           -0.90050680112350        0.79641415937606       -5.50527359513887
C           -3.53588473462014        5.44781968828637       -4.22791637977382
C           -4.89510976528139        5.45085150247268       -4.54567652780139
C           -5.35004012563018        5.27402294031333       -5.84603007003647
C           -4.43582014370055        5.07590938063523       -6.87463939489918
C           -3.07531364472997        5.06937153397534       -6.58747920763328
C           -2.64057148744723        5.25385863836914       -5.28148311010544
C           -4.99109342902366        9.34629700042010        1.35024159714450
C           -6.33703149128482        9.27368806578021        0.98536464554611
H           -6.71686105203338        8.37039936038898        0.52127344510894
C           -7.18913398751425       10.33751261197285        1.23879057124423
H           -8.23397775020634       10.26745068688294        0.95818206323498
C           -6.70796452227460       11.48737017820485        1.85013331148261
H           -7.37507691252578       12.31925702721742        2.04449353940633
C           -5.37004038803679       11.56896212944486        2.21177811661993
H           -4.98862184035014       12.46648335299469        2.68540218949339
C           -4.51559680775631       10.50472521253957        1.96823130725473
H           -3.46767619081259       10.57526698120356        2.23739218083366
C           -0.39099925184895        5.78393459348394        5.16216562984831
C            0.01563577246321        6.99167704097944        5.73184681128302
C            0.59725054371158        7.05526011890795        6.99151519331963
C            0.79664975497285        5.88646687906041        7.71769156206349
C            0.39926868486280        4.66915990422460        7.17561746209088
C           -0.18518935537268        4.62733951969753        5.91637320382048
C            3.33654124424827        3.16175275584095        3.66550001570012
C            3.62559093475482        4.43083363700357        4.17245998353039
C            4.15627882897430        4.60940743663389        5.44298526873177
C            4.41579768034423        3.50664917416056        6.24943699928207
C            4.14532888940927        2.23080471855232        5.76821686390624
C            3.61066052751733        2.07282968161517        4.49579109330111
Au          -1.95803023875681        5.55829777546031        0.46849201266915
