54
 energy: -154.392037652641 gnorm: 0.000147778801 xtb: 6.5.1 (579679a)
Au          18.46394325029178       11.87369379479553       12.52287047938676
N           18.27249375730327       10.40302065921701       14.14052350095278
N           18.75055395276801        8.42377417182460       12.94570826520342
N           18.56621696882263       10.06949289657504       11.26218669960900
C           18.53084946121183        9.13339345221306       14.04182145181695
C           18.75799142195829        8.86082256596983       11.69321787295282
C           18.62765300574907        8.23923160003520       15.29625492763213
C           19.61058205147854        7.03529895751358       15.15569019440610
C           19.95573288851539        6.33672607724435       16.51486177268630
C           19.14035011992614        7.68649016189828       10.76880863016694
C           20.63455037995648        7.25910934184766       10.96221657302305
C           21.24032119774600        6.46039676507989        9.76037112330600
C           18.06774722204802       11.02032589719174       15.39202774108342
C           16.83432296149681       10.95886408592002       16.03965262811797
C           16.65613199460285       11.62498675253029       17.24537126065519
H           15.69927398876432       11.56390580483656       17.74841505525889
C           17.69328729083636       12.36697130043244       17.79112265767472
H           17.54961039933940       12.88072528824951       18.73390128704884
C           18.90749860153282       12.47514971166814       17.12640488946139
H           19.71160941820252       13.07465671042862       17.53361643426697
C           19.08585963761688       11.80949663649956       15.92445234483723
C           18.61287947811099       10.40057476972574        9.89235869789518
C           17.51274909262443       10.18520497069499        9.06035513481819
C           17.56235410285361       10.58687109978769        7.73330377011877
H           16.71036697662816       10.40448024505227        7.09055827032530
C           18.69502936566994       11.22041238644503        7.24082208454416
H           18.73090330735129       11.52747644661947        6.20264166723434
C           19.77393650321124       11.48130427415797        8.07343735831694
H           20.64947074597196       11.99814259473943        7.70175200015833
C           19.72358881406225       11.08127483921536        9.40040875087097
C           18.33378199255590       13.91322061412208       12.98094994312289
C           18.47711071807540       13.74723349115214       11.58866880222930
Cl          15.52941109978348       10.10109518235524       15.32587372727180
Cl          20.55630559955340       11.97307163831355       15.03896688214488
Cl          16.10556131492626        9.42756193637094        9.68848750163172
Cl          21.00802396233168       11.46968328307774       10.48225771473656
F           19.04807975997879        8.93256627372483       16.37490729202806
F           17.41557266987674        7.73760385791891       15.59652455176218
F           20.76480075301404        7.47875032671546       14.63323718429683
F           19.09355043295010        6.11112580128597       14.34194009052984
F           20.54948656721437        5.17178752626898       16.28972610220910
F           18.85745859171569        6.11735803706426       17.22905626707916
F           20.77897398011231        7.09671541980663       17.22868029862205
F           18.37196392672303        6.62408586201565       11.04677101259937
F           18.98955017875456        7.94929336578613        9.45676666466771
F           20.75649169278280        6.51576683237737       12.06199706486843
F           21.37947466501124        8.36977612900849       11.11807089444120
F           20.41675508784121        5.49639425650427        9.36932172937958
F           22.39615107668014        5.91235184822280       10.11143933645556
F           21.45781736256278        7.27684844582808        8.73348729403075
H           19.42620534751037       13.97215707825494       11.12394146288705
H           17.62152770468978       13.89870751252759       10.94585881799309
H           17.37041692539917       14.18894761507574       13.38590065469296
H           19.17547023337192       14.26162340777535       13.56193518651686
