41
 energy: -69.201187074076 gnorm: 0.000233309818 xtb: 6.5.1 (579679a)
Au           6.83808577103765        1.11742922013947       13.17677197263511
N            4.44572823158744        2.77845312972828       14.01744586140649
N            2.19469526751672        3.12244579784944        6.66770508815698
N            5.72621368486322        2.36461676726710       15.67141815278459
N            1.02989978509418        2.68722000304993        8.50739652054386
Cl           8.20198228509080       -0.09257210836618       11.87043200218268
O            3.02680287209081        3.17329645264914        7.74760601129664
C            1.01480068865514        2.83035386424963        7.15364751130142
C            2.28372530954627        2.90570064736386        8.81573150952409
C           -0.22689811622931        2.66112454365331        6.33574268914386
C           -0.72604956211569        1.21802855920580        6.51758935496332
H            0.01598097136068        0.51275316528000        6.14303642623922
H           -1.65836010702230        1.07029459428987        5.97261320629185
H           -0.89718581997740        1.01508384809724        7.57490260663223
C           -1.28647208603836        3.64384226849236        6.86016273501312
H           -2.22416896215614        3.51120835996697        6.32059736603018
H           -0.94649635697424        4.67113467054666        6.72736530927024
H           -1.46037132291947        3.46917310224473        7.92212276457790
C            0.07957360122216        2.93921369185277        4.86004547790734
H            0.84260103587542        2.25020317202966        4.49734948125234
H            0.44857109653336        3.95770332070917        4.73701906518982
H           -0.82073372797077        2.81594453735464        4.25808206798065
C            2.85772117161225        2.87997968399805       10.14575221033578
C            2.02506158213463        2.62997042745835       11.24104613602883
H            0.96870237035680        2.45480334508157       11.07093029674053
C            2.54606945008029        2.59968046037007       12.52125924372952
H            1.90568931248342        2.38942929335456       13.36950971503601
C            3.90861530399355        2.82083533621621       12.71247593491138
C            4.74476503031620        3.07984482572365       11.62974803147181
H            5.79562858678128        3.27212036448882       11.79727334981849
C            4.22210555922391        3.10416217783815       10.34954087197771
H            4.86611639446955        3.30229966629538        9.50112703418846
C            5.60858953566952        2.17868172010225       14.35026312261803
C            3.84193294629774        3.32601621012381       15.12816097758772
H            2.91199122953178        3.86418178066025       15.07165432030569
C            4.65953723940504        3.06937693620993       16.17522981258485
H            4.57644142485976        3.32153592988394       17.21814002071438
C            6.83577460349694        1.88150926999380       16.46579683651928
H            7.50698405269492        1.33638439549081       15.80509904918863
H            6.46891479875831        1.21820763810955       17.25051525849844
H            7.36353486881215        2.72352893094990       16.91669459741263
