98
 energy: -134.134464546947 gnorm: 0.000111757529 xtb: 6.5.1 (579679a)
C           33.94987386140101       37.07823496089974       15.38861122034405
C           31.87816843536794       37.17465102952331       14.53174143221389
H           30.80382592815235       37.12566787215727       14.54930855428658
C           32.75054502487516       37.40619544562395       13.52242104838603
H           32.58680623431788       37.63173137631654       12.48411236637900
C           32.08898785244163       36.94345371267093       16.98617267326380
C           31.57961908991111       38.13587954016278       17.51487487990451
C           31.08290104769667       38.10949058940140       18.81623527801879
H           30.67561271716108       39.01314331025918       19.25454044361564
C           31.09634552573661       36.93912715974363       19.55970115983346
H           30.70417862114526       36.93727182741480       20.57012639914515
C           31.58782083195452       35.76696511163136       19.00787180016540
H           31.56944825481582       34.85378774920662       19.59064040407170
C           32.09094342157100       35.74822853587702       17.70768022832531
C           31.51891540667495       39.42033871848491       16.71274713600684
H           32.00623794520929       39.26388103912344       15.74356602093007
C           30.05486475784387       39.79715449874774       16.44812080235248
H           29.53501876715794       40.01515034915505       17.38087382929993
H           29.54100584284824       38.97633781450299       15.94750178806723
H           30.00993638528366       40.67919552403428       15.80975184776567
C           32.25689950801117       40.56637636329868       17.41367978786154
H           31.83663602380564       40.76859321067295       18.39897405872780
H           32.17933241136809       41.47198388797511       16.81209231362708
H           33.31062943555404       40.31531159236578       17.52478355902883
C           32.56149216132279       34.44818754040676       17.09369527834084
H           33.00967260809636       34.66519194839986       16.11745654957359
C           31.36374226417267       33.51768174907784       16.86348580104406
H           30.88401683077909       33.26291904689131       17.80832680961129
H           31.69794740637601       32.59902304126974       16.38207162335310
H           30.63098378202209       34.00482945368156       16.22015079422989
C           33.62184980679029       33.76692765121281       17.96561783245871
H           34.42485429294462       34.46848312979221       18.19697570840604
H           34.04785475043315       32.91790276270612       17.43162094473613
H           33.19435951243307       33.40978863174591       18.90221331228631
C           35.20353557563684       37.70461827646825       13.36110112309256
C           35.64315438456273       36.92742056554445       12.28399130908799
C           36.80196898895868       37.32509616737840       11.62016402768776
H           37.16454213742809       36.74495865585654       10.78036186231277
C           37.49446511815224       38.45816341320226       12.01131163255644
H           38.39568002583247       38.75022818235920       11.48536205799940
C           37.02266908495928       39.23321503696830       13.05707749878572
H           37.55362116195193       40.13709908797441       13.33058498703428
C           35.86740844153662       38.87612496540464       13.74911544853804
C           34.88822972787693       35.70970109671057       11.79322124846284
H           34.13361691730913       35.43296367733760       12.54009994304122
C           34.16507616515943       36.04215802944137       10.47985970041183
H           33.49042834570017       36.88753591090027       10.61570319457951
H           33.58461532301173       35.18116409588188       10.14928244218654
H           34.88473405306772       36.29839019529992        9.70237559114769
C           35.82333816971133       34.51168409233462       11.58604332556480
H           36.45738452076025       34.65336839145800       10.71117481517714
H           35.23238231960155       33.60826892741387       11.43632474378178
H           36.46181597931567       34.37328758023887       12.45772696612728
C           35.32944768729524       39.80860279803399       14.81538138734401
H           34.51675293624101       39.31248621842043       15.35745494454154
C           34.74648705701496       41.06193429416965       14.14888551233764
H           35.51648661263133       41.60062772972617       13.59676274975732
H           34.33102228558237       41.72519976719664       14.90762047703794
H           33.95260965765462       40.78088904873331       13.45650459715195
C           36.40572224785739       40.18405849860935       15.83877955597917
H           36.88595208430148       39.28485630829626       16.22639305674934
H           35.94590224659849       40.71477124285642       16.67240456107363
H           37.17067286091974       40.82465277456968       15.40070388244237
C           36.19958704461124       35.00638309817908       15.93715595091099
C           35.48284626770545       34.27274419140296       15.01403313223135
H           34.57610552980943       34.66758364233345       14.57367998558291
C           35.92261699462163       33.00286350686402       14.64505210926777
H           35.34413170439155       32.42415441642111       13.93463262006254
C           37.08658088210517       32.48561746068074       15.19171129329315
H           37.43025184081994       31.50004095888308       14.89995073106212
C           37.80500898673872       33.21978336842256       16.12381488589268
H           38.70374215926360       32.80192594722670       16.56245155371328
C           37.36024091631037       34.47975739980283       16.51794522611222
C           37.96858509753937       35.31801335450469       17.54244524346705
C           39.16063566593265       35.05049890501832       18.20959971455115
H           39.73075452153157       34.15842872737902       17.97626424814042
C           39.62543271896095       35.93514874086360       19.17234497670577
H           40.55440738566823       35.72912885564960       19.69140855309697
C           38.90545380544062       37.08305715091489       19.46564938051015
H           39.26863931248263       37.77948331808071       20.21306013873017
C           37.71293059128921       37.35069871011678       18.79890063913752
H           37.16979527218956       38.25724465156874       19.03884117004042
C           37.23068066172496       36.47393210731084       17.84061839650790
C           34.42953106158148       38.31387582842719       19.21575337832250
H           33.95428029126903       37.37801998901543       19.54813897593080
C           35.11502785824320       40.54956804949290       19.85569908840058
H           35.58044224515798       40.50652354743357       18.87316685304136
H           35.87118155392029       40.75201237653659       20.61521965192843
H           34.36015305736468       41.33724799838642       19.87466565895464
C           33.91987716009402       39.08146445570158       21.45890871637851
H           33.45912021201840       38.09649647356576       21.52559708429051
H           33.16539085522106       39.84977266888320       21.63708610708862
H           34.70770888977287       39.16930119658129       22.20914964441669
N           32.63484352726700       36.97893555948280       15.66279881781726
N           34.01037964694959       37.34027183029466       14.06771781189224
N           34.48921310558934       39.26111982997931       20.13083125274990
O           34.86211417011533       38.44909225899882       18.05685577611918
Au          35.57096015324265       36.75869823022599       16.71183490707737
