26
 energy: -46.376517904832 gnorm: 0.000248608823 xtb: 6.5.1 (579679a)
C            7.62481769446062       -1.70728877876574        3.53358674537766
C            8.47561665902167       -1.42948811267370        4.68415280990429
C            8.31185541683419       -4.04802741778104        3.56100980159705
H            8.26198206586425       -4.84968917829485        2.82257046497668
H            9.33773987060590       -3.66796976138643        3.59647180398810
C            7.90102088088238       -4.55994538905780        4.94036634079488
H            8.72227633213155       -5.15034660804846        5.35226448677536
H            7.01724415641651       -5.19759459652735        4.86935137916448
C            7.57642248361604       -3.37543284142113        5.84874641802367
H            6.58924868958952       -2.97466362736267        5.59773950316457
H            7.57229163888338       -3.68320826956802        6.89549963565350
C            9.46400529464388       -2.00714854688883        6.79424925348594
H           10.46623101926894       -1.84237617847307        6.39623952226145
H            9.47287945267847       -2.84010830132079        7.49357900611212
H            9.13430089671192       -1.09398723468410        7.29707370466918
C            6.53489320313905       -3.19550784876983        1.99730220065580
H            6.93217182100981       -2.70341483844943        1.10538683897620
H            5.56144563667827       -2.76120354315792        2.22945520964953
H            6.43455359758059       -4.26467078201467        1.82457633931190
N            7.43674556436130       -2.95999063012558        3.11806957835672
N            8.55940363360309       -2.30099298752409        5.68957218200484
S            6.91024529378704       -0.45337430491551        2.67737613723633
S            9.32272041743902        0.01514139938161        4.79076224954175
Br           9.63588102837162        3.22129126474082        3.91017878813873
Br           6.91073203216885        2.76253438692830        1.77692821255128
Au           8.19497522025532        1.38406272616966        3.28929138763384
