55
 energy: -91.152095865510 gnorm: 0.000170407330 xtb: 6.5.1 (579679a)
Au           2.89488485658198       12.15570688569989        1.91658712241729
P            3.42246844529593       10.10974339187462        0.96189931951559
O           -0.16235924080358       14.56079373902005        2.72041307267491
O            0.43421720958810       13.25362301282649        1.00212153691811
O            2.55848095723928       17.33732962170611        3.61820880769138
O            1.28442928048613       16.80662888139700        1.85748205519491
C            2.12873243341864       14.00057303188687        2.44168787383090
C            2.73338976720441       15.13510214125935        2.81054095394052
C            4.13975249187152       15.16266470176175        3.34168760664518
C            0.74064388974500       13.93824659260166        1.96413685968310
C           -1.50731514645942       14.49546070511322        2.25741316096768
C            2.08762104088452       16.47923018931912        2.69239277421483
C            2.01136342872745       18.65167343922026        3.55811078947842
C            2.47385794660371        8.71492874254611        1.64889167565207
C            2.36738103573236        7.48355954114706        0.99646418009778
C            1.61766216323833        6.45852521755806        1.55057145789601
C            0.96228791633340        6.64804468387133        2.76076508035647
C            1.05731847106061        7.86800927624444        3.41521221745376
C            1.80692635283556        8.89443278744110        2.86104965469371
C            5.14669886677233        9.52403140185053        0.95645778905974
C            5.57887275930666        8.41860590754157        1.69016519151943
C            6.91954043597947        8.06240836145976        1.70154733658513
C            7.84685434565051        8.80792721350229        0.98741718771763
C            7.43024988299763        9.91782317860644        0.26325413999556
C            6.09249296364235       10.27685957171657        0.25286065284098
C            2.95377687914976       10.09266574985187       -0.79498084032512
C            3.59480660995647        9.30712671685709       -1.75639115516857
C            3.16794071243993        9.32773893785647       -3.07545880165393
C            2.09784162335072       10.12900547486869       -3.45110783081587
C            1.45638690832816       10.91506265757363       -2.50351998562727
C            1.88197537042158       10.89955682992239       -1.18497789690034
H            4.14042561545234       15.53280053608869        4.36870932268594
H            4.57283348233004       14.16205372856803        3.32550086359665
H            4.76499916196574       15.83087923466470        2.74692563304424
H           -1.59532675511278       15.01023894065271        1.29651358145590
H           -1.81834962520072       13.45312328995289        2.13637687653723
H           -2.12695065784798       14.98874814839750        3.00622340892451
H            0.92618539502602       18.61476374609061        3.69191930820119
H            2.47018998050594       19.22648213894187        4.36245983977240
H            2.23572913961834       19.11047553904459        2.59042164752825
H            2.86960314875029        7.33029553422363        0.04744183676494
H            1.54140069676796        5.50779892414955        1.03478860298042
H            0.37414309593806        5.84506355507109        3.19045344030058
H            0.54367717675491        8.02223672845122        4.35740181057567
H            1.87662472190913        9.85028389502253        3.36892883474804
H            4.86320783742881        7.82908011727618        2.25214503987344
H            7.24045227696658        7.19778496815735        2.27185838249029
H            8.89391498955889        8.52728717830367        0.99720092540695
H            8.15130513196171       10.50660488799762       -0.29259043708165
H            5.77161147513358       11.14744739941036       -0.30969199966165
H            4.43709632435021        8.68445057738819       -1.47556287257680
H            3.67479439433948        8.71562840772742       -3.81332592158104
H            1.76831354673521       10.14360683952528       -4.48393761309050
H            0.62476689459600       11.54714947288467       -2.79289002873580
H            1.38357189450452       11.52252762790149       -0.45137246868920
