48
 energy: -68.486397253483 gnorm: 0.000200406123 xtb: 6.5.1 (579679a)
Au           8.28536737509244        2.38615453457921        7.91904310119268
Cl           8.93635353982290        0.73137378898732        9.29906160525458
N            8.46148499460825        5.09559160270181        6.82654688852009
N            8.18430597884598        5.97551331284126        5.88947133048960
N            7.34875903050686        5.34680938352371        5.10029128528301
C            7.09205489116567        4.08821226312616        5.52938479324987
C            7.83506486929193        3.91459103461359        6.69130312246983
C            6.80316147043163        6.09088982036492        3.98425126730325
H            7.40867399797961        5.91879696039159        3.09310388409929
H            6.82396093205787        7.14973925702394        4.23878541741782
H            5.77963798156381        5.76622748177965        3.80280191454527
C            9.42049414506682        5.45123614279616        7.84851845927124
H            9.18700730254128        4.84056048376063        8.72244976789032
H            9.28188989872150        6.50781415913112        8.09090489419242
C           10.86133833453333        5.22044613759913        7.41060468454519
C           11.48673733450686        3.76993753385814        7.62734156527326
H           10.80450395441723        3.02593882009446        8.01687444062203
B           11.19969520167798        4.24356024333276        5.96238679854628
H           10.26954060661610        3.75841628891585        5.43670930716566
B           11.54597647036631        6.01292149162775        6.02456620576420
H           10.85104176117961        6.74559220715957        5.42008552605947
B           12.03792466410689        6.47460329040234        7.72126187992703
H           11.62984330778473        7.48872254148391        8.16003754819633
B           11.98393211773799        5.00738636751519        8.76995279096129
H           11.47316532988308        4.96393064196676        9.82757679239312
B           13.15143256072188        3.79961361331973        8.13240300140670
H           13.52776806250056        2.95577274906267        8.85739705294344
B           12.67727615538651        3.34097687048053        6.43927928785790
H           12.75739715706518        2.21398175948152        6.11718446907154
B           12.77569425551917        4.82852039949305        5.38075861908631
H           13.04447514415758        4.77229887546702        4.23715996906511
B           13.29876886592810        6.21558190181366        6.45592947536786
H           13.93357377659733        7.11205659495803        6.03248085195271
B           13.56025947109725        5.57767477316981        8.15942831938377
H           14.35533273092462        6.03227721676389        8.89630437437871
B           14.00175879042130        4.54502147741523        6.71436436016604
H           15.12309683557790        4.28999648369988        6.46492690226706
C            6.21369365597013        3.13004404962105        4.87086555822667
C            6.12076259231276        3.03354842826479        3.47972759792565
H            6.72126419151441        3.67732890206412        2.84746229296368
C            5.29567573533569        2.08291660058538        2.89820292576477
H            5.23550933208307        2.01572102561671        1.81769634933733
C            4.55888456816246        1.21445845510680        3.69165712124369
H            3.91599675087342        0.47249516335993        3.23255558644856
C            4.65644029207857        1.29322878454739        5.07481268244356
H            4.09009654364383        0.61227991375797        5.69963937035797
C            5.47743496474465        2.24139726627472        5.66093149490037
H            5.54789207682463        2.30774290611684        6.73991706679807
