65
 energy: -84.295649015381 gnorm: 0.000105733621 xtb: 6.5.1 (579679a)
Au           0.23548548875091        0.72102171257806        7.59695355741888
Cl           0.42737158973345       -1.51578960748407        7.42152999165770
N            0.87399815012025        3.38149034669809        8.53267909367169
C            0.09559878949195        2.69981088158176        7.75064299802951
C            0.70844997821339        4.86263448836038        8.48927167432319
C           -0.26950056004883        5.04053954311227        7.31658406974421
H           -1.07532487599534        5.72880669848898        7.57847235741078
H            0.24962934827545        5.45924849084708        6.45198719680795
C           -0.81089410653294        3.62679216062327        7.00256775043366
C           -0.82990881002072        3.31267424646062        5.49175642163183
H           -1.33309762501782        4.15097525117050        4.98598012869755
C           -1.60697952083379        2.05157470478204        5.20693651148049
H           -1.40338759595999        1.59856569361103        4.24153691105800
C           -2.49393529003406        1.49739927673725        6.02760216582537
C           -2.81883789845499        2.08416999093100        7.37496397891653
H           -2.42093158172627        1.42496717566760        8.15416706891278
H           -3.90483778101618        2.11786284297011        7.51082910553042
C           -2.24954861485429        3.49068771444432        7.54548837660533
H           -2.26430817370116        3.76123749769704        8.60541806982664
H           -2.88099783264816        4.20695598893194        7.00969363128793
C            1.80414524082725        2.73912485239458        9.42228479270762
C            1.35763715617306        2.30386285938671       10.67708407654672
C            2.28708287358510        1.73399880076821       11.54478514183037
H            1.96867758748356        1.39541920917719       12.52378061034923
C            3.60936043078357        1.57271799450723       11.16772173990595
H            4.32099210661132        1.13596934979187       11.85879447375071
C            4.00809070082244        1.91675174331949        9.88749607859306
H            5.02746182479761        1.71971645501543        9.57700908400027
C            3.11245740615822        2.49124512542917        8.98790142973014
C            2.04283405439831        5.56245561335484        8.23995323581089
H            2.76325452533319        5.29779803628486        9.01297627288678
H            1.88828457118384        6.64096505841123        8.26439128573384
H            2.44630385413390        5.29888874895840        7.26469935367638
C            0.12431221864220        5.37490062019916        9.80618914597292
H           -0.85572654316639        4.94191001836582        9.99527182635094
H            0.01597884473030        6.45790811165392        9.75171609206425
H            0.79068697213826        5.13580938448342       10.63375088533431
C            0.58150567250530        3.18785547684510        4.90528759783808
H            1.09277980249092        2.32550184149268        5.33212548632022
H            1.17460149347044        4.07979977410518        5.10789690452868
H            0.52202206087049        3.05430279218467        3.82514970225631
C           -3.21868634573481        0.22592137869611        5.68542360069705
H           -2.90462481698117       -0.15349198675700        4.71339229931582
H           -4.29670294734772        0.39778781734798        5.66463857800962
H           -3.01484944539393       -0.53510148983397        6.44068299366637
C           -0.10312181277662        2.31898800722015       11.07872731575259
H           -0.68048356946045        2.85181487336076       10.31558076654789
C           -0.32619436843579        3.00952914896738       12.42983330701909
H            0.10510238725044        2.42579701830026       13.24317011353666
H           -1.39526236225628        3.11735030738019       12.61421492344297
H            0.13016769248371        3.99914662165074       12.43811219219584
C           -0.63151045263950        0.87900036642928       11.12913271804574
H           -0.49175089138769        0.39875392138857       10.16085592959100
H           -1.69567876088742        0.88267263173145       11.36527604597391
H           -0.10500782851577        0.29530734987651       11.88402394034406
C            3.54993508899811        2.70642205535608        7.55393344250462
H            2.75220460453913        3.22486428994486        7.01105805705799
C            4.83204476819841        3.54233755312128        7.45590471875367
H            4.73380198012935        4.46952723887246        8.02004504232620
H            5.02980272137074        3.78834463156347        6.41240625767267
H            5.68814910103727        2.99192623642517        7.84641926005941
C            3.75685050069517        1.34395874583728        6.87845077198200
H            4.55352546055504        0.78317334488376        7.36702264016631
H            4.01755772006691        1.48582659873852        5.82966352035160
H            2.83904564477152        0.75901637516207        6.93300528952290
