25
 energy: -48.118158995234 gnorm: 0.000083976251 xtb: 6.5.1 (579679a)
Au           5.75956828798769        1.42445491713084        0.64577641123111
Cl           3.92268938846731        0.36378106077623       -0.06065688020202
Cl           6.34122856726346        1.93402329652424       -1.45193207711431
N            7.37392404930319        2.34289483291035        1.44365707636955
N            5.37468352574995        1.04535252177981        2.59369302628762
C            8.35378878025377        2.98238404488355        0.82202108292580
H            8.29625813274604        3.02796910234306       -0.25947506666365
C            9.40831936929228        3.56883961209320        1.52076173125079
H           10.18350829686482        4.07934702950759        0.96300594050810
C            9.45348809545914        3.49435521844894        2.89468693111956
H           10.26571486883790        3.94452048835052        3.45327895731028
C            8.42076438752414        2.81908458345602        3.57156652242691
C            7.39333801692762        2.25449162865777        2.79309018408768
C            6.32338594466915        1.56030706085571        3.40851927181216
C            6.27060970747741        1.42453422163197        4.80822421044461
C            7.32256758618562        2.00506790980709        5.58222117231762
H            7.28172612505305        1.90073367275753        6.66020335242894
C            8.34992356515474        2.67124938909848        4.99136730374491
H            9.14105590288045        3.10632903757039        5.59087920372051
C            5.17942234855430        0.72218885207333        5.35292275796406
H            5.09736775887383        0.59292205635493        6.42574261497261
C            4.22871222294863        0.20845456510459        4.49999516929916
H            3.37442906865262       -0.33818623706172        4.87948295107685
C            4.35401914820791        0.38670069254216        3.12277847416920
H            3.61850685466489       -0.00829955759702        2.43138967851163
