85
 energy: -134.154860080335 gnorm: 0.000127518810 xtb: 6.5.1 (579679a)
C            8.37535957204579        4.69997735995989        9.82532689092844
C            9.85294514334777        5.56486370200817       11.27428186681154
H           10.50499271966593        5.56835430682143       12.12927189141307
C            9.61619847329790        6.50074712972525       10.32569983703301
H            9.98956187380000        7.50194281046079       10.20609777077062
C            9.06621973322908        3.27990914285905       11.74159923806537
C            9.73692116392526        2.15161843775209       11.26214040310971
C            9.72849765924368        1.00058130022853       12.04732280425038
H           10.23637235176895        0.10888690792223       11.69855189244893
C            9.08949202575810        0.98652498570344       13.27553118563407
H            9.09395681765284        0.08445891416607       13.87669929465082
C            8.45667266768756        2.12574875320600       13.74528248522361
H            7.97678177725661        2.10377415169566       14.71636616998977
C            8.42919318816297        3.29397975251466       12.98756865208840
C           10.50212238698880        2.16564518554943        9.95679100412057
H           10.34980370544623        3.13207430102707        9.46578794293503
C           12.00504924057483        2.01523694925249       10.22636573584833
H           12.55524745525333        2.07396137618239        9.28726720143750
H           12.34833138946496        2.81472387426567       10.88389568247076
H           12.22385674532028        1.05745717353792       10.69919977440383
C           10.00346539366090        1.06671570055511        9.01218600431558
H           10.45930767247457        1.18779987642954        8.03028777587525
H           10.24838588591820        0.07528243470558        9.39360392979861
H            8.92030139714701        1.13497358119845        8.90025244682122
C            7.74673309137959        4.53193292090488       13.53139319203031
H            7.60106456470304        5.24299887974517       12.70961817123055
C            8.64021141242587        5.19361209639339       14.59114286696030
H            8.16376155325891        6.10081838610876       14.96319364701599
H            8.80398079255343        4.51571612997993       15.42959876099491
H            9.60981230507029        5.45808704952550       14.16854077585001
C            6.37346901855347        4.21142611325716       14.13489459380883
H            5.82579525305681        5.13889299771893       14.30269215592221
H            5.79782855541232        3.58431978124180       13.45728853880659
H            6.47265102625959        3.69415685730577       15.08968220863352
C            8.21171861016506        6.64925492930836        8.30420342322989
C            9.05116597110846        6.85533328896060        7.20365100274493
C            8.53153325213350        7.54387007523735        6.11015138571174
H            9.15452124670385        7.72210215801393        5.24193530025005
C            7.22566840763001        8.00600905590895        6.11397157376369
H            6.83610031126031        8.53088219595478        5.24917424256454
C            6.42280936890508        7.81800259768549        7.22632890782817
H            5.41227998377824        8.20955247976319        7.22842186979603
C            6.90504905818022        7.14420923509603        8.34643979242785
C           10.49281098921554        6.39104222161916        7.19065871902924
H           10.63374687351971        5.65828942748616        7.99390271309686
C           10.87554118602360        5.72524223196746        5.86316729250383
H           11.83503133424097        5.22005316809707        5.97519516868931
H           10.12646815594394        4.99055814868101        5.57582355385362
H           10.96717540473999        6.46129993583489        5.06388219356188
C           11.41946123783249        7.58677434378492        7.45840303000523
H           12.45681650583506        7.25274601050096        7.48558775293080
H           11.31358285442450        8.33498895436812        6.67203769601356
H           11.17958272939168        8.05560470419722        8.41303550549277
C            6.04625647866741        7.03519626461763        9.58786047752857
H            6.55004850533572        6.38924891333193       10.31396594072783
C            5.89230400505519        8.42092400567558       10.22952804549851
H            5.30753744999816        8.34058598805221       11.14586094555112
H            6.87315485185767        8.82995894619739       10.47466422171397
H            5.38729740666388        9.10972607163709        9.55171610302284
C            4.67697148411820        6.42303679715254        9.27637067197169
H            4.14682835097287        6.21482938602377       10.20498090923651
H            4.06930899047158        7.09461427374233        8.66969279925837
H            4.80295178692839        5.48591233112265        8.73366620188138
C            5.74217713882201        3.31561219504188       10.49571812933132
C            8.21327411155743        3.34442283642174        7.10470454158359
C            5.62077778728187        2.13999312982937        7.83322550542583
H            6.12248771980281        1.57656790395914        7.05007477445324
H            5.22112485740710        1.42121805833118        8.54622254506387
C            4.47750973748561        2.92608860845972        7.24269595307916
H            3.77997032942524        3.31972657219766        7.97712255856917
C            4.67813288670958        3.75593992560252        6.00907225642817
H            5.65751792984078        3.75848363864666        5.54758816054378
H            4.15348079202166        4.70173595577275        5.94021152932226
C            3.88022182742673        2.49237305696029        5.93460190797647
H            4.32639388279806        1.64376127894026        5.43002175727382
H            2.80514553247561        2.56492340314238        5.81985743553201
N            9.07894813601597        4.47723812384017       10.95222288279318
N            8.71653155205960        5.94781034896512        9.44853318345233
F            6.11872754682441        2.32001704938597       11.33214078912986
F            5.80693330934229        4.44720323322035       11.25018013543703
F            4.42607076941632        3.12668982566789       10.28598896372191
F            8.23181921062894        2.19827363025326        6.39765336464031
F            7.87960048796764        4.30987790279106        6.21532978021015
F            9.52210149235395        3.58187078118892        7.39615388581548
Au           6.99248615954220        3.37732508080852        8.81397972865089
