24
 energy: -46.975187301634 gnorm: 0.000114397196 xtb: 6.5.1 (579679a)
Au          -1.18451660337298        4.75648969029534        3.05226723123364
S            0.57718282908780        4.31445913825148        4.52950701079803
F            0.71423986041254        4.07591238225328        8.13543159358017
F            0.84789774099459        2.06749987853517        7.36674748201609
F            2.19746006732737        3.58630635938035        6.65249247902841
N           -2.61719144568987        4.12802706126468        4.38002198604798
H           -3.55986782462871        4.19655939367397        4.02444055379460
C           -3.85348927544321        3.29148974198867        6.27659432421873
H           -3.96611747264794        3.88076365063638        7.18725452889937
H           -3.83616242535612        2.23811880846639        6.55803482995281
H           -4.71195353339366        3.47127153388451        5.63064088289839
C           -2.56752445376791        3.65821837644451        5.58672933151619
C           -1.37691837965305        3.45774484211914        6.32543353983624
H           -1.51434284911128        3.05392862351923        7.32451670039714
C           -0.08156227471605        3.70438161905443        5.94924336888656
C            0.93968585062451        3.36201314160322        7.02014056579448
C           -2.71190909051912        5.16319954357759        1.71134796443857
H           -3.37394685357044        5.91235838602103        2.13574385900882
H           -3.29531909181907        4.26205191861141        1.54654327213492
H           -2.37117502411263        5.52389108858454        0.74749216987366
C            0.18118563387650        5.40295262418855        1.66645121402081
H            0.13982686259779        4.79997602045935        0.76474941293865
H            1.19052525605536        5.34634256300563        2.05962955116746
H           -0.00790750317626        6.43214361418107        1.37794614751332
