54
 energy: -85.523024480990 gnorm: 0.000221598624 xtb: 6.5.1 (579679a)
Au           0.53452516677165        3.46449332543724        1.32108759093656
S           -1.16853023626858        2.02745879453871        1.88569441469962
P            2.38460235357288        4.75350104741124        0.77920976896911
O            1.09816578048464        0.81339302222075        1.50400704658287
N           -0.54842813705797       -0.58690566494643        2.15514598030565
C           -0.20164671591731        0.60016010431538        1.85574606998077
C            2.70038440086666        6.22895191594339        1.80230238646414
C            1.59508601019505        6.93346621047514        2.28473978927713
C            1.76417837299120        8.05895870141572        3.07559975750193
C            3.04239834479288        8.49097170324062        3.40321278233221
C            4.14867660694512        7.79432834371072        2.93591753837723
C            3.98109176980579        6.67096564956147        2.14062625446860
C            3.90624256984365        3.77017440077099        0.95374387691561
C            5.04301399000540        3.96486873878219        0.16579292666402
C            6.16752874808321        3.17434727300947        0.34929641282182
C            6.17274969374280        2.18122416735304        1.31951968658826
C            5.04704035829351        1.97730526488682        2.10656795787311
C            3.92144986141819        2.76447917837749        1.92245129302878
C            2.49319669658531        5.37398376947100       -0.93119240717380
C            2.85067386964472        6.68081984315356       -1.26508199612514
C            2.88532967870173        7.08141848512882       -2.59282240734128
C            2.56414842507214        6.18473183266565       -3.60211974733675
C            2.20268830262301        4.88249479122954       -3.28083547050544
C            2.16201836088069        4.48224453510445       -1.95547432573997
C            1.92255497496880       -0.34314447898389        1.45257421182416
C           -1.85906221685119       -0.93417230106215        2.47528356743629
C           -2.94385984127112       -0.56116022581171        1.67788325628857
C           -4.21999306892118       -0.99321503064485        2.00177609809591
C           -4.43052417918926       -1.79789041847708        3.11496732404421
C           -3.35089074586268       -2.17895256866893        3.90270986660511
C           -2.07006290605551       -1.75969113433209        3.58205185405936
H            0.59589373697279        6.59049518197810        2.03775130306819
H            0.89716037377460        8.59678656779567        3.44209253116068
H            3.17650180122692        9.36767498393305        4.02661713505915
H            5.14839857232200        8.12626621253239        3.19309321783604
H            4.85132544916511        6.13135869674474        1.78379495279494
H            5.04502720373351        4.73275026978253       -0.59994590288738
H            7.04337783261420        3.33402560598265       -0.26972066568024
H            7.05256949733481        1.56328019914664        1.45890886427177
H            5.04498215504888        1.20070740549522        2.86307244251010
H            3.03885328150810        2.59770882931224        2.52952861272928
H            3.10333547474543        7.38927220058283       -0.48426079188916
H            3.16487204971906        8.09976816352873       -2.83898618908949
H            2.59139271341413        6.50076890443686       -4.63874829344245
H            1.94671112627627        4.17953791265903       -4.06551191459226
H            1.87047048635160        3.46755179136935       -1.70503887419535
H            2.92048536405093       -0.01281098577730        1.15978255296681
H            1.53200938369879       -1.05698577188329        0.71978360718373
H            1.95917793124779       -0.82809842628046        2.43391866270206
H           -2.78092405703701        0.06565524104801        0.80893807976284
H           -5.06005493437908       -0.69970104190816        1.38070678889373
H           -5.43179002493568       -2.13052119908713        3.36514550904549
H           -3.51024934506606       -2.81136034610856        4.76993712840901
H           -1.22197236066680       -2.05533967055745        4.18925988546105
