29
 energy: -61.643069856666 gnorm: 0.000236768145 xtb: 6.5.1 (579679a)
Au          -2.82087319302821        3.74499096824867        7.15394792895595
F            2.49935182995377        6.25017369187369       -0.04992850538293
F            4.13406226159092        6.03876471008287        1.34344102909864
F            3.39339756848541        4.31788331298029        0.27684831841925
N           -8.14450232985459        2.17556952198789       12.10042269857777
N           -0.70118113584422        4.37283077409653        4.97405268855542
C           -4.27597529684186        3.30779126747792        8.49578694742096
C           -3.98298826182059        3.06283374111287        9.84375088485655
C           -4.96296822428886        2.77049023039557       10.77666742121962
C           -6.30325113695638        2.71162244795458       10.38415413494590
C           -6.62800597512349        2.94975289196693        9.04555530656492
C           -5.62755854085756        3.23941441135533        8.13364308764229
C           -7.32023813797580        2.41492722888076       11.33250337352449
C           -1.46120435669939        4.15091390560183        5.83440528280925
C            0.20493741060506        4.63891809636070        3.98439946032401
C           -0.21132077874730        4.63729261237350        2.65125238256368
C            0.71084143539811        4.90797209940720        1.65628987111333
C            2.03611158336190        5.17950994542082        1.98984251587751
C            2.44608971856871        5.17792288296162        3.32009651196618
C            1.53210391644671        4.90882459019047        4.32389365649663
C            3.02459946156440        5.45272816899468        0.88693703090212
H           -2.95100461383933        3.10211028512152       10.17753951198676
H           -4.69858978596077        2.58690108573832       11.81227694202421
H           -7.66440498876958        2.90640686313108        8.72914904869582
H           -5.90966271070683        3.42005168055557        7.10125325211894
H           -1.24519087778953        4.42570582831635        2.40927696452166
H            0.40776908664339        4.91410891653045        0.61603936895060
H            3.47937930634013        5.39081563141715        3.56618097171043
H            1.83377676614648        4.90557220946454        5.36372191354008
