30
 energy: -56.002351657499 gnorm: 0.000710641193 xtb: 6.5.1 (579679a)
Au           2.82800153006089        4.76845094432898        6.43837749681248
Cl           4.98976133392380        5.59020497569844        6.40532031761592
Cl           3.30436703366500        3.18257871680324        4.86206551068581
Cl           0.60739965784448        4.24217323456947        6.40605225476545
Cl           2.42185027664376        7.36195917415204       10.25775672557213
C            2.43205215158640        6.22229524231511        7.83370873072261
C            2.21714661484226        7.46217043545960        7.18924849050912
N            2.99457216876337        7.91396705814626        6.24569889253827
H            3.85781692147843        7.43150317957778        5.99328771730888
C            2.55880328114184        9.14525886845601        5.61225820700119
H            2.36096073561229        8.95402473595417        4.55274675561456
H            3.34946330156177        9.89679081068114        5.69193817846362
C            1.29149357141761        9.52729468477892        6.39221161064610
H            1.44557253788948       10.46105164332299        6.93668079098559
H            0.44613118468842        9.66462483573314        5.71629968689701
C            1.03917822558448        8.36752195601296        7.36800044731003
H            0.97167246162732        8.69815740211909        8.40650918715482
H            0.12233033055797        7.81877018192866        7.13667934513415
C            2.46067382332205        6.02268751320012        9.15608429825078
C            2.67832636780397        4.72256666381084        9.80389035168358
C            3.75229961695483        4.56104766865464       10.68269882858035
H            4.41205725405790        5.39867190448907       10.87826112929499
C            3.98458258750549        3.33435306930012       11.28193323300918
H            4.82841865866967        3.21504940813098       11.95192926764523
C            3.13895979502514        2.26203603572099       11.02773757083924
H            3.32177523188274        1.30338029048543       11.49932473641925
C            2.05546134511421        2.42360861193804       10.17606924377220
H            1.38337427379444        1.59481816616611        9.98592660731734
C            1.82301989776242        3.64612942442858        9.56468290572176
H            0.96337782915683        3.77465316365276        8.91992148175081
