67
 energy: -84.489339947230 gnorm: 0.000149881819 xtb: 6.5.1 (579679a)
Au           7.14832058797259        2.78292628498000        6.54799628664478
C            6.80786705895458        2.83003118222591        8.59005614038060
N            5.84464968669444        3.51386458859531        9.24433403279604
C            4.78262367699123        4.32435213968514        8.61325639236822
C            5.41681953182727        5.35448533778858        7.67649319861568
C            3.85925218493195        3.36314531806494        7.86157281706630
C            3.97407373224240        5.07478912876812        9.67568763111107
C            5.93459220235768        3.29615709876196       10.59448398394177
C            6.98197316354951        2.46400912680708       10.78854070251673
N            7.50227190537445        2.18470643888709        9.55174407220389
C            8.70482475227026        1.35371366250332        9.33645085371241
C            9.82938603005841        2.28573244517697        8.88011741653069
C            8.39939640727280        0.27650605428807        8.29374856157191
C            9.12024437545152        0.65951014077937       10.63689982267418
C            7.48882979066709        2.73637054483149        4.50593482675264
N            6.80394892591209        2.03580457110898        3.57663127819164
C            5.61393655178596        1.19824008919740        3.83230824076472
C            4.47569641332200        2.13401733303120        4.24491344086872
C            5.93572415749828        0.17652571929115        4.92475955948415
C            5.20857685532809        0.43689667415828        2.56673156529832
C            7.32022103058366        2.26318359560122        2.32757289123728
C            8.35538947607194        3.11877705747183        2.48098025715871
N            8.44208958919103        3.40201363502170        3.81912945275995
C            9.49220944660470        4.25692579269162        4.41023333428691
C            8.84285746868441        5.32235708694535        5.29572707867597
C           10.42827647879823        3.34637015839809        5.20786425953683
C           10.29118244887574        4.96604656668757        3.31276419752235
H            6.18540015586089        5.91788915778606        8.20363393316481
H            4.65280416011332        6.04406306701119        7.32028479113116
H            5.86749479410761        4.87272376196527        6.81112407139215
H            3.37042854528863        2.68780358125899        8.56304721129999
H            4.43306969185655        2.76729155586978        7.15519268687949
H            3.09921053210445        3.92280853657280        7.31862530004980
H            3.44489149495007        4.38691806640857       10.33336272254381
H            3.23304254843313        5.69477850951086        9.17213298518010
H            4.61685287664950        5.72316176259513       10.26959435657921
H            5.27167854511442        3.73212006187740       11.31802041303955
H            7.37174327930770        2.06716761813694       11.70702922412928
H           10.07013959392659        2.99687328722810        9.66968151479486
H            9.51987071987272        2.84346533381120        7.99897858522564
H           10.71980167519063        1.70711015437068        8.63921958919633
H            7.49741387089334       -0.26778671559964        8.56978085783878
H            9.23219833441416       -0.42291923809584        8.23574915386464
H            8.25613942645821        0.71430368616966        7.30790704462931
H            8.31474896813414        0.03470959767835       11.02040646093307
H            9.41377883190834        1.38114357941383       11.39770371507861
H            9.97930486250748        0.02228615786808       10.42943297783454
H            4.22426765773441        2.80329546881849        3.42275435777503
H            4.77699668048685        2.73739822080932        5.09838909098947
H            3.59403118459946        1.55428241515450        4.51371001548686
H            6.84545521441590       -0.36702479227660        4.67382911169707
H            5.11332345328006       -0.53146680189967        5.01706355302360
H            6.07310910718569        0.66287813716607        5.88843210854501
H            6.02310727011034       -0.19356867611588        2.21271163621258
H            4.90436416080489        1.11712135038916        1.77269678601210
H            4.35900316527687       -0.20226260274947        2.80502293049380
H            6.93630095655998        1.81729274033591        1.42934497881630
H            9.01190603623473        3.52929137731131        1.73701235656877
H            8.06745146673525        5.84917436607848        4.74144100281945
H            9.59698048161543        6.03862942671907        5.61879560928778
H            8.39751516949383        4.87680483873379        6.18298569560879
H           10.92681198314872        2.64444372855078        4.54013821331362
H            9.86230804659295        2.77780130559082        5.94249341367593
H           11.18017185902166        3.94229065600826        5.72284665765816
H           10.83005721364326        4.25441201461927        2.68912076449380
H           11.02340572519034        5.61965057469795        3.78577047610423
H            9.64008633150766        5.57618695845734        2.68820135195500
