57
 energy: -100.426936514908 gnorm: 0.000165473018 xtb: 6.5.1 (579679a)
C            2.20611181827939        2.92626583971758       14.41093712327340
C            2.45305071531897        1.76222130754004       14.17963653910195
C            2.74154853776466        0.39806242455019       13.90717297173052
C            2.90191807728699       -0.04574383249313       12.59168212290040
H            2.80470525803205        0.66081312392344       11.77471156360558
C            3.17878525585566       -1.37558875177401       12.31541331136448
H            3.29450056965865       -1.69010101121308       11.28567969409302
C            3.30564062040856       -2.28646614055964       13.36309970415106
C            3.15093210435649       -1.85237105180751       14.68297535964429
H            3.25411424967375       -2.57374813873687       15.48476085428079
C            2.86972554034247       -0.52780261521503       14.95108237208112
H            2.74913686915397       -0.19670405947053       15.97642747066678
C            3.74092634957413       -4.14530630827312       11.90032787809617
H            2.83193533037938       -4.02424146351758       11.29828130838409
H            3.94384781008308       -5.20996938305174       12.03157768098052
H            4.58540197976604       -3.68046997560484       11.37674652292341
C            3.21834972261394        5.64414589174316       13.53378394145535
C            4.17289078278361        5.07814697149719       12.69794661979430
H            4.24842803279448        3.99814312041808       12.62914182759477
C            5.03730799835612        5.86527962817742       11.94533288821710
H            5.77319700271152        5.39632571101742       11.30092698251766
C            4.96057366352437        7.24962117252438       12.01720551322989
H            5.63391014293572        7.86556594490096       11.43134558697474
C            4.01867900353993        7.84560610752305       12.84075577782186
H            3.96126703192659        8.92758758321260       12.89334212744263
C            3.15213316835617        7.05214042553231       13.59505300733830
C            2.13461097073257        7.60701304216064       14.48039626681680
C            1.86360297830119        8.95156388792428       14.70666020013884
H            2.44870028871935        9.71355864341816       14.21047134053710
C            0.84368505147541        9.30959082637775       15.58764769339597
C            0.12042832093343        8.30000390196966       16.22450297100686
H           -0.68991958301538        8.55163388953168       16.89655788826888
C            0.42744850789932        6.96851915424881       15.97123974536495
C           -0.21655661785408        5.79179795921631       16.54396387775165
C            0.28102566326518        4.54337940881233       16.11461573002271
C           -0.30511533925517        3.39922912900866       16.64172003636312
H            0.05521225133831        2.42424674609113       16.33131887499626
C           -1.34518905241605        3.47351823616052       17.56142931178645
H           -1.78308665710470        2.56360681579800       17.95759530576352
C           -1.82391507180850        4.70964904640373       17.97406556182292
H           -2.63490152247104        4.77033695867954       18.69145681224105
C           -1.26153673413299        5.87020841151422       17.46670834064270
H           -1.63814996803682        6.83428829322673       17.79216233483847
C            0.53096287346640       10.72497677892312       15.85583340046535
C            0.56159862594684       11.69456640000725       14.85262825368076
C            0.26035894094828       13.02620921167332       15.07683790668412
H            0.29587873981094       13.72693885763189       14.25265397117923
C           -0.08081230697736       13.43665718320373       16.35727985097154
H           -0.31800769543156       14.46943437448726       16.57546441431143
C           -0.11132713856996       12.48381586845657       17.36198073145332
C            0.18092985892089       11.15081311709370       17.13989847677095
H            0.15520554738973       10.45384954027434       17.96779608905409
N            1.41514206236813        6.67005529953441       15.11501231661472
O            3.57736690022474       -3.60925166851617       13.19779809652976
F            0.86899138394824       11.33186282883849       13.60375296866431
F           -0.43472639653825       12.86549945326893       18.59826721986554
Au           1.81107748245877        4.79741588403074       14.76683726234533
