62
 energy: -91.140696712771 gnorm: 0.000192077196 xtb: 6.5.1 (579679a)
Au           4.82949172807694        4.34888529897269        4.41570833509264
S            6.12806177338975        5.89665428383573        3.28486898115839
Cl           3.50814513299177        2.86364525200005        5.56150361318584
N            7.69946402118478        3.74499464624178        2.59012538545256
N            8.69417857098566        5.66880682291245        2.55475867728483
C            6.75262696800492        2.69807472314372        2.81544965161598
C            9.59523725072354        4.73458247499610        2.07341992845188
H           10.58767153381021        5.00852134806665        1.76523113248929
C            7.51526277488477        5.06061735370476        2.85941283467635
N            9.07070114749190        7.50414741431904        4.00466538226363
C            6.90344860848606        1.89459678368851        3.94711534718294
C            8.82666452304520        6.74546797074290        5.16612923313783
C            7.41767668875363        6.40765878884271        7.08228361327277
H            6.55519609567765        6.68469653436201        7.67768177171004
C            4.87756362845117        0.73033458817052        3.31563899608888
C            9.00352561337271        7.05195509273451        2.83234867021642
C           10.75578192065925        8.07616619570425        1.40068355230129
H           11.18644209597155        7.10874632753774        1.14258441271232
H           11.24342875065174        8.44623148063251        2.30233569413578
H           10.94969949429316        8.77112322088741        0.58383040681516
C            5.95448845171603        0.90892728567667        4.17985301430598
H            6.03558545218799        0.29284046143748        5.06824427074553
C            9.24022543690949        7.95428216452580        1.63724653021135
C            8.66668842901818        9.33927673717277        1.97471127654351
H            8.84994979996726       10.03264652327540        1.15448277754083
H            9.13510736474334        9.72680397314669        2.87895499576537
H            7.59242428136105        9.26768865356593        2.14423033438367
C            5.71202549888193        2.51207502178778        1.90537691773950
C            8.97546237222726        3.53620859554648        2.10765754960779
H            9.31363106730372        2.55492970230945        1.82562196338398
C            4.77611126357228        1.52113075797112        2.17487579278218
H            3.94473006269153        1.37786313273853        1.49349213111664
C            8.54652521329485        7.39891258453849        0.38753619625917
H            7.48590574773807        7.24076749081713        0.58529090569351
H            8.98925844360563        6.45054368061502        0.08342499447909
H            8.64734720729085        8.10633354011185       -0.43518338541157
C            5.59851967159205        3.39062502151571        0.69122827020387
H            5.36015679486345        4.41338396761584        0.99198199744599
H            4.81415846148903        3.03114710430489        0.02658612956215
H            6.54337114864914        3.41297970417793        0.14542219133265
C            3.79962222640230       -0.25405007024541        3.65999652283375
H            3.22814236602660       -0.54166550232889        2.77800613149715
H            3.12014704968657        0.21643413201396        4.37516882720502
H            4.21720915561175       -1.14709151748371        4.12503594454471
C            8.03928824560341        2.12691167302614        4.90413744855763
H            8.99266557840980        1.87365015419053        4.43598011094995
H            7.91880829232259        1.51680568301117        5.79815475661503
H            8.07878545185197        3.17675735430927        5.19923132201107
C            7.72947427826372        7.13771314615455        5.94435031215560
C            8.20891271691847        5.33312670399479        7.46644313650437
H            7.95672071415570        4.76356363603254        8.35318604021199
C            9.67135331570211        5.71483210448677        5.57846790600065
C            9.34007405854480        5.00886086809260        6.73432961575648
H            9.98585369867086        4.20216852854144        7.06410225199437
C            6.90795889257337        8.32046723118927        5.51685908697942
H            7.55899458206873        9.17120173564429        5.30745775498152
H            6.18994862396011        8.59709569303273        6.28789340246850
H            6.36580356015405        8.08288821184101        4.59910795312793
C           10.95016314799230        5.38496168861120        4.85471860951543
H           11.77991823209482        5.35114731688163        5.56291305880448
H           11.17585682789821        6.13065087206424        4.09321751641138
H           10.87905849511240        4.40609765259644        4.37633181796348
