47
 energy: -75.501825632499 gnorm: 0.000126165723 xtb: 6.5.1 (579679a)
Au          -0.98999885107435        3.93266584133356        1.50209040754976
P           -0.15709009563506        6.04713643775273        1.97762152428216
S           -1.74616613746761        1.85339726162542        0.90217507904486
Cl          -2.33514262161023        3.29357159562892        3.97317108217929
C            0.74021100157988        6.10979893310584        3.56315037085843
C            0.70543307195887        7.20724355654138        4.42607155392790
C            1.41211247972649        7.18517642600057        5.61910801343558
C            2.16224003351573        6.06989499826719        5.96647485491875
C            2.20079370877610        4.97135416857364        5.11807767191727
C            1.49214955024491        4.99105850007612        3.92749789268461
C           -1.43831361369238        7.32438649244985        2.19500147163107
C           -2.50091182838614        7.02285670844531        3.05267819570652
C           -3.53180201805249        7.92756224682362        3.24444275021700
C           -3.52413295272786        9.14299991139848        2.57160847924696
C           -2.48183915052933        9.44682954566596        1.70736485546779
C           -1.44518650953172        8.54439069587296        1.51826907431825
C            1.01806597579257        6.79431336884407        0.80155230827413
C            0.98570999431309        6.35958430450008       -0.52450262667267
C            1.85417342316176        6.89184584005134       -1.46483163766588
C            2.77272452789278        7.86252966774357       -1.08944774124415
C            2.81923403843576        8.29807450931535        0.22841538982543
C            1.94915241029152        7.76885640468692        1.16883611196380
C           -2.65335735582656        1.19251403855626        2.21565000585296
C           -3.19085786903343       -0.08194261052554        1.95785382508420
C           -3.94527450742197       -0.76915729440925        2.88658831585571
C           -4.19832468342584       -0.20253563275020        4.13211047288231
C           -3.68175204210880        1.05049412456838        4.41669369964504
C           -2.92259959367337        1.73576417178620        3.47621496978277
H            0.11597102614183        8.07982539486464        4.16760147037884
H            1.37546858186721        8.04316574212793        6.28118572792153
H            2.71246806284946        6.05488651160786        6.90047104461321
H            2.77999381163263        4.09541319074809        5.38768628245866
H            1.51423965476046        4.12870391143488        3.26989625400368
H           -2.51518589981473        6.06939679546180        3.57050121755984
H           -4.34681354810317        7.68287385858212        3.91630303269623
H           -4.33264602412960        9.85028426740914        2.71775919581648
H           -2.47401238576171       10.39206067618972        1.17596213134457
H           -0.63612297905782        8.79253359727009        0.84057480678607
H            0.27346845072230        5.59514061977239       -0.81595629994274
H            1.81709379781317        6.54537135718730       -2.49146256596694
H            3.45555747114536        8.27712076524135       -1.82236596819282
H            3.53802410209886        9.05351497256145        0.52582288365469
H            1.99585064396022        8.11180196626946        2.19664692718310
H           -2.99277435733543       -0.52089733220297        0.98639065002504
H           -4.34008674442481       -1.74939650763440        2.64392746207459
H           -4.78923376091672       -0.72843294277707        4.87233223091500
H           -3.86461028898020        1.51156894395537        5.38038714571737
