71
 energy: -119.262090546242 gnorm: 0.000119583696 xtb: 6.5.1 (579679a)
Au           1.79747036823096        6.94081956054570        2.32361472916821
S            4.00228298758506        7.49401283976720        2.66921410153121
P           -0.48557344311846        6.50724157112601        2.05283231063152
O           -0.45769223606177        7.39326966682231        5.83573624186671
O            1.12694740728275       10.11902847144227        4.03490812627240
O           -0.45208044991758        9.06606220789048        2.62860743106215
O           -0.00835854014242        5.48619573632169        4.55336682956529
O           -3.19227706896932        6.94278463539236        5.17051409504843
N            5.79940592685185        6.31757977491069        4.12416531685246
C           -0.94880653347866        6.16392064211819        5.36098993038456
C           -2.15840381316649        6.33606561078585        4.42695707825332
C           -1.75436359076132        7.20947525661995        3.23458021829795
C           -1.10745647772594        8.49160483385492        3.75111263319372
C           -0.00580645789583        8.20999335196454        4.77697185854713
C            0.55377013621449        9.55993298330022        5.20803356899680
C            0.28804576313330       10.25263831102529        2.91760768750017
C            1.15770051596049        5.03281508912408        5.23343341854411
C            1.12881206342221       10.52682709706889        1.68374416691958
C            2.51108799968229       10.38493959077719        1.69927199675032
C            3.23780684899814       10.57741999406823        0.53240582457118
C            2.58967818433180       10.91223419833691       -0.64761507363597
C            1.20810987042529       11.05514366623578       -0.66291804067749
C            0.47750704066883       10.85848745553667        0.49949098722643
C           -0.95610921894543        4.74635719315944        1.84483908130505
C            0.07831292692774        3.81297306752781        1.77075911821435
C           -0.18461908365111        2.46414065451456        1.59015847227162
C           -1.49598947397837        2.02344257947501        1.48121567780547
C           -2.53719362703306        2.93925298008192        1.55099414414271
C           -2.27090597307159        4.28872642748742        1.72920330748768
C           -1.04853399238004        7.18124799566637        0.43830799156327
C           -0.06787173793412        7.64974016145017       -0.43637107572346
C           -0.39726995060520        8.16237388514577       -1.68109903749518
C           -1.72592025007431        8.21894956721465       -2.07630195259926
C           -2.71567246598487        7.75753388421697       -1.21892781884850
C           -2.38091548156178        7.24251329856015        0.02417954782713
C            4.70590184863120        6.08836618642039        3.38880645355187
C            6.41446069043191        5.29741663924877        4.70806284863781
C            5.98049710152191        3.98399773444046        4.60390265390890
C            4.85330613776447        3.72731739443104        3.83030166592614
C            4.21669754429818        4.78687557151112        3.21405099404023
H           -1.21148928949216        5.57370710965441        6.25321624830399
H           -2.46428783264476        5.33309897956921        4.08476754430441
H           -2.66225459285667        7.47407780318305        2.68270966048034
H           -1.86179997183067        9.18362099196816        4.16251591208644
H            0.81732932977288        7.70272766455055        4.24832306181087
H            1.36594021724508        9.45123919029564        5.93211882279110
H           -0.22658547012012       10.21548423309352        5.62390262165309
H           -0.44332453773410       11.07088581491116        3.09528849347118
H           -3.99285965193400        7.02503947925654        4.63762900652838
H            0.89540777095411        4.26228803775242        5.96787067202852
H            1.82273532268708        4.60913659277381        4.48109003354586
H            1.66233878216913        5.86202827656120        5.73887897803062
H            3.02314603877318       10.12015707377931        2.61607698741739
H            4.31495442210948       10.45714430551844        0.54718349727524
H            3.15911827833163       11.05938805040377       -1.55847753613436
H            0.69698642880593       11.31421700986615       -1.58355984127628
H           -0.60330689980781       10.95043262686736        0.48665379376170
H            1.10432537761641        4.15347429558249        1.86016325614895
H            0.63484429113728        1.75625436530753        1.53623992882196
H           -1.70753305485082        0.96935941465767        1.34180798609985
H           -3.56423891554777        2.60176127967281        1.46509079956830
H           -3.09910015231584        4.98719402530964        1.77257665375545
H            0.97182229401426        7.61949068831910       -0.12924116744117
H            0.38471626184486        8.52319829236804       -2.33968204723932
H           -1.99085068407204        8.62253224023026       -3.04697335605217
H           -3.75698935850159        7.79874894334699       -1.51925531221651
H           -3.17539556385821        6.88957999081716        0.67249911268480
H            7.29661849688431        5.54356390670987        5.29361762273904
H            6.50957086492052        3.18289502892844        5.10534023449576
H            4.48225206443502        2.71478727776389        3.70724652046204
H            3.35172823823896        4.62126924511837        2.58187430329954
