47
 energy: -93.226159660522 gnorm: 0.000298126269 xtb: 6.5.1 (579679a)
Au          -1.71779089537594       -0.57616173650591       13.39710632575342
C            0.24925173022985        9.74287882316861        7.77403541157513
H           -0.09547358517285        9.56511464053956        6.75467549443800
H            0.51442028877133       10.79558066333271        7.87264154709742
H           -0.57021907232156        9.52505985534670        8.46004586689233
C            1.45915460063681        8.86604230383880        8.09044854120349
H            1.80033953943435        9.06892247674283        9.11124794830328
H            2.27989434711930        9.11564022885775        7.40962464639761
C            1.12023098085131        7.37945256304351        7.95401646922028
H            0.79425926785717        7.16261121900071        6.93225261646128
H            0.29802142818553        7.12048604540982        8.62813049409565
C            2.33433022040082        6.50477759967428        8.28768415271925
H            3.16542185705603        6.72635218731903        7.61176458503423
H            2.66806743904930        6.68526605408173        9.31397672765012
C            2.05286616882674        4.37850658240221        6.97464946912742
C            2.54523680276101        4.75216289863909        5.72801969087849
H            2.95253638194822        5.73989912092472        5.54972868606724
C            2.49397001406822        3.81179871906401        4.71248617812584
H            2.86788193900363        4.07287613393131        3.72873319508215
C            1.97029946942237        2.53305329154962        4.92541455455178
H            1.94959347973960        1.82688023933814        4.10331518124662
C            1.47924207690759        2.15919970978489        6.16415571408956
H            1.07295626263030        1.16725643524365        6.32480830248401
C            1.51747405015242        3.08862990818547        7.20168443112316
C            1.09647095600421        3.05679546819212        8.57711147388548
C            1.39810069862595        4.33481247934869        9.12216464002000
C            1.10374145963527        4.65009531320907       10.44877694563477
H            1.33027449179678        5.62402392196547       10.86445195917198
C            0.50594028324548        3.68002107452964       11.22842449830124
H            0.25727375075599        3.88169122844493       12.26301069053307
C            0.20917088074282        2.41546907192191       10.69081549085337
C            0.49717048045072        2.08638491413597        9.36803493802283
H            0.25485320239550        1.10419992727206        8.98207675005874
N           -0.38514026495749        1.48177522592546       11.50021066282337
C           -0.88360399672581        0.68329442550887       12.18721382310733
C           -2.59140716878468       -1.86833697814796       14.69101271485794
C           -2.86369712141293       -3.18383518581374       14.35449072698948
C           -3.46005598238493       -4.08766824727048       15.22344303149922
C           -3.80852229526145       -3.66743757854274       16.50126324581154
C           -3.55388377008967       -2.35554341850094       16.88199573642648
C           -2.95525124765005       -1.49315774227953       15.97350924905501
F           -2.71820972162863       -0.23402450698488       16.35885752506346
F           -3.88479205603962       -1.94287494345643       18.10632509113286
F           -4.38124868696787       -4.51413806045780       17.35316496009916
F           -3.70051666192623       -5.34488818414349       14.84898484014959
F           -2.53574188337177       -3.60770837976368       13.12881137896385
N            1.99340986136827        5.10006421199528        8.15250339792054
