38
 energy: -63.425906224462 gnorm: 0.000584475087 xtb: 6.5.1 (579679a)
Au           6.65889696280350       -0.84615695558088        3.26289048197947
Br           8.95138986486679       -0.27290797996786        3.03333838928268
P            4.43752878447856       -1.46922126816709        3.59765999336969
O            4.61683505538346       -0.23848098669747        1.69306646002287
C            3.22421643245577       -0.14632501026213        3.92888947494332
C            3.11914342116707        0.91536734888014        3.00289751761016
C            2.28144802172419        2.01087313151862        3.24806990767387
C            1.53472529152186        2.05385604795312        4.40818264516094
C            1.63899441464189        1.01812754588984        5.33603084249436
C            2.48245445155057       -0.05712202455395        5.10690919538290
C            3.97303072287345        0.80158504474173        1.84975839794951
C            4.28057367223645       -2.45158024579673        5.16542658791974
C            5.14462320620227       -2.12209067648583        6.21253827552793
C            5.12063094116114       -2.81775345220630        7.41095349864530
C            4.23248974630895       -3.87124460307910        7.58108387245628
C            3.37277145935945       -4.21955839394673        6.54836400755265
C            3.39612563348637       -3.51616055320181        5.35286441766346
C            3.63176958964400       -2.60693215303742        2.41625317405455
C            4.43179049787748       -3.51126843135220        1.71981605394945
C            3.86650524042110       -4.41695289792449        0.83529481542528
C            2.49301389131097       -4.42695682144083        0.63413007720143
C            1.68858355625002       -3.52634507527982        1.31885726744795
C            2.25285514803822       -2.62030667429057        2.20505800285580
H            2.22401919809806        2.81392304589609        2.52106921419589
H            0.87487406977304        2.89149661240930        4.60285574996503
H            1.05476348577789        1.05522908896108        6.24869093959843
H            2.55201848566355       -0.84242796341278        5.85049711165528
H            4.09285399300784        1.65442622013070        1.16748112707503
H            5.84797842411165       -1.30644435110424        6.07773919421504
H            5.79915283361361       -2.54255158454115        8.21080372125870
H            4.21398028255367       -4.42260568358678        8.51451538477550
H            2.67989059414761       -5.04456427414767        6.67344254865131
H            2.71781710958960       -3.80108019413078        4.55596219687650
H            5.50559293116489       -3.50109191475885        1.87025981158613
H            4.49985038657816       -5.11497359662838        0.29924623277521
H            2.04971367083302       -5.13409505176429       -0.05800910725269
H            0.61530083250509       -3.52783762529837        1.16284421384502
H            1.61679769682283       -1.91784764372327        2.73236830422938
