94
 energy: -112.611427647062 gnorm: 0.000369124577 xtb: 6.5.1 (579679a)
Au           5.94254142117011        1.44458934056705        5.47717145142140
Cl           8.16751004177510        0.93949466670520        5.53524399415728
P            4.71371085171661        4.76332876317974        4.14599010558641
P            3.73764121777246        2.10588991393355        5.33903617518489
C            3.42994328311190        3.73869569572676        4.70147395109721
C            2.04981502015193        4.37527080789963        4.95912080649666
H            2.09198352445988        5.21297217389560        5.65922590506409
H            1.37909694563477        3.62963202811147        5.38563834858095
H            1.59066132244509        4.73245420782331        4.03465256154163
C            3.94163028769706        6.08438051553346        3.06412161095387
H            3.10030285104858        6.47476548557151        3.65420541666328
C            3.36061017259564        5.48948761925200        1.77142937095991
H            4.17472443977104        5.17392581747962        1.11223318941595
H            2.74980767913733        4.61122737710954        1.99648477163557
C            2.51158494369376        6.53760090486334        1.04854456326927
H            2.10647773070498        6.10499246208930        0.12922760243414
H            1.66869556339407        6.82891718432218        1.68417299675937
C            3.35726894114541        7.76757173011701        0.71302430314460
H            2.73118900221707        8.52822392716047        0.23792759030556
H            4.14315424420552        7.48748033302389        0.00333484545269
C            3.99405387766413        8.34451739447679        1.97875650092737
H            3.21039143155668        8.71335269929311        2.64927067689812
H            4.63637139347554        9.19012431515751        1.71610279806482
C            4.82877180656963        7.28647011406518        2.70888062166258
H            5.25205798136737        7.73572782311844        3.61006439767878
H            5.65702769034332        6.97312895235647        2.06765315010746
C            5.67713712425201        5.74879161802462        5.45507069328692
H            6.34703959721750        6.45365697288050        4.94705886430772
C            4.70320056093356        6.55623042746150        6.32684284601741
H            4.00142387522285        5.87639364464386        6.81988831146337
H            4.12137750674300        7.24246717243751        5.70476628505809
C            5.45535240870523        7.35570411647359        7.39328804858447
H            6.11118678246263        8.08689700744003        6.90854892233556
H            4.73434031409622        7.90408568267813        8.00662050677157
C            6.28599713859498        6.42201141958322        8.27398474808070
H            6.83176367103822        7.00576542488274        9.02069557046518
H            5.62214754732479        5.73112905125900        8.80494175708079
C            7.27215054703009        5.63073591959860        7.41536700539332
H            7.84132615029228        4.93970882732303        8.04331310276930
H            7.98127237985446        6.31902248404718        6.94317993411769
C            6.54262333157490        4.83363362155190        6.33183835267215
H            5.91371829124077        4.07104059636215        6.80045146084957
H            7.28576132077530        4.31926197689410        5.71887685181890
C            6.05090442999942        3.81290695996725        3.26352062017998
H            6.50517286075220        3.20653645622372        4.05950586696852
C            7.17502392554741        4.66624255502511        2.66220423032373
H            6.80918119993823        5.20265007768402        1.78101137346595
H            7.53415436709488        5.40430842258632        3.38359464342377
C            8.33512547183698        3.75061584985999        2.25686462869705
H            8.72724555040061        3.24797317354962        3.14683467129409
H            9.13927554558452        4.35503471340423        1.82742031923181
C            7.87129367164239        2.70720461160201        1.23895988993916
H            7.56640881658285        3.20842660535759        0.31348176829375
H            8.70049518244897        2.03564763764875        0.99988941305068
C            6.69840967776718        1.89638137194340        1.79143820845797
H            7.02879598261521        1.31467115756104        2.65766595265310
H            6.34003338718898        1.19523398596271        1.03216665601107
C            5.55081019826893        2.81682341584115        2.21191290197205
H            4.74311997865505        2.21386433815608        2.63184219300870
H            5.16200582891051        3.34185634985550        1.33516100420865
C            2.95321059685400        1.97539814483198        7.03797506358427
H            1.87007064356701        2.13997804267671        6.97102604941510
C            3.54637111059341        3.01912064451920        7.99017839960799
H            4.63048544631431        2.87545404855376        8.05622997403200
H            3.36486366151153        4.02425452098541        7.60002099207651
C            2.93543153410964        2.90161324167802        9.38801214493296
H            3.39085425826519        3.64794730471599       10.04591923452780
H            1.86110205079417        3.10898258760247        9.33591457552962
C            3.16298842497280        1.50015108718932        9.95684168929057
H            2.68879233778974        1.41771854004182       10.93919377789975
H            4.23688610105029        1.32753380064586       10.08535916558710
C            2.58431887008801        0.44441407943150        9.01357308043952
H            2.79043847709791       -0.55564068664811        9.40625702567567
H            1.49722710514153        0.56372896338446        8.95051838808264
C            3.19126926355844        0.57231543127675        7.61394866239914
H            2.74792746828858       -0.18668108080119        6.96390889834472
H            4.26874916087869        0.37895296927917        7.66247723091984
C            2.63751026675959        0.89205260656235        4.38732528239478
H            1.83811083086106        0.55103064775446        5.05804640902969
C            1.96246229747538        1.48294104057419        3.14270734726723
H            2.71644319858883        1.86105801207228        2.44542640457596
H            1.32340909735295        2.32226020316089        3.42710792597037
C            1.10541396964767        0.42688698788569        2.43874089085434
H            0.29319764944196        0.11469388810951        3.10426613912983
H            0.65522607362238        0.86705057000819        1.54371421456758
C            1.94569831443341       -0.79063519660241        2.05056799286058
H            2.71195137286551       -0.49205951711035        1.32682299606460
H            1.30854122127819       -1.54235645285243        1.57550382804517
C            2.61570445926089       -1.38756396306957        3.28884699943561
H            1.85022802685102       -1.75662336647521        3.97988806347921
H            3.24461324114657       -2.23445446227461        2.99933654523666
C            3.47327345525311       -0.33470846993148        3.99293292825803
H            4.28818385939522       -0.02378964228587        3.33078178201107
H            3.92554786748329       -0.77236042350163        4.88733459076087
