37
 energy: -51.184420288184 gnorm: 0.000200967847 xtb: 6.5.1 (579679a)
Au           6.18590685260418        5.13579829138863       10.31798570950678
S            7.82531834858479        4.44089176030930       11.67388245943264
N            4.08560284134582        5.97815934713159        8.18889077057554
C            7.52494447583190        5.02155134395834       13.27985301156222
C            6.41750204247990        5.78472919364057       13.65504486035192
H            5.67597585838716        6.04855286367888       12.90781186016299
C            8.30551561379573        5.11496314448524       15.57008469792531
H            9.04767142496464        4.85003437987795       16.31602961400807
C            2.08705963681594        5.76968628207385        2.26932398716961
H            2.14059179584650        6.85352755216502        2.11972425294395
H            1.05809343878083        5.52675255243770        2.55571904049191
C            2.41134815920498        5.05345895770158        0.95294047013061
H            2.44761568888516        3.97249886032323        1.12529098568839
H            1.59851824805539        5.24764516371883        0.24549241428204
C            8.46685204713137        4.69345167081886       14.26102887165105
H            9.33053552826188        4.10099449003338       13.98030955332704
C            3.02800362612777        5.36457241183711        3.40890336664932
H            4.05695657711456        5.64476641542864        3.16253079867491
H            3.00100993214919        4.27727164212336        3.53798467262367
C            7.19898063361986        5.87477082671420       15.93144101636533
H            7.07177158535795        6.20548244749739       16.95604500052445
C            3.58005217395424        5.65486610207348        5.85514579433931
H            3.57325161022477        4.57041341160812        5.99772637405319
H            4.60143707044060        5.95346628253091        5.60203831317887
C            2.62572649022016        6.04172087902997        4.72297453740766
H            2.63646025855730        7.12926394325384        4.59293294823458
H            1.60451573237014        5.74893092803556        4.98967073751040
C            6.25723119298052        6.20604547670037       14.96520644397281
H            5.38899987990344        6.79861031813779       15.23502495105294
C            3.72873946872035        5.51580066088812        0.33118325071630
H            3.72101705175486        6.59585788976502        0.17702625609113
H            3.87318123901924        5.02985706689608       -0.63423400350431
H            4.57511181911685        5.26325614785736        0.97071273039385
C            3.17146868051730        6.33460839562055        7.16676898797952
H            3.17926939024600        7.42526234184255        7.05880910189738
H            2.16740166088343        6.01957798425422        7.47274809921947
C            4.86676192574674        5.65310257415511        8.98984806341335
