45
 energy: -66.598323408501 gnorm: 0.000164870897 xtb: 6.5.1 (579679a)
Au           4.14916500525435        4.63348841448569        0.88468318436597
Cl           5.57395409886364        5.91849996505606       -0.29288817769607
P            2.70352070706681        3.32108329372669        2.08578380880869
C            3.41249052559167        1.74109223285831        2.64039688749369
C            4.34369568759339        1.11092719221562        1.81136620867940
C            4.91267537088736       -0.09688133087910        2.17477350059317
C            4.57145278599850       -0.70571452482899        3.38169414593787
C            3.64920119301151       -0.07700896978057        4.21378608893535
C            3.07497995577144        1.13084032341259        3.84980060558833
C            5.20934540002541       -2.00669242106793        3.78003086248472
C            1.19747597206184        2.83433727952728        1.19129737088840
C            0.51545592645208        1.64030592201710        1.43309036108537
C           -0.63220154529086        1.32768570737446        0.72167024005747
C           -1.12733755820735        2.19633047071246       -0.24693641356460
C           -0.44563809244689        3.38725853357683       -0.49397066534697
C            0.70217474714733        3.69961278012455        0.21275189068447
C           -2.37183845408154        1.86525664878211       -1.02138693421214
C            2.08845960735371        4.07403014575122        3.62279024191090
C            3.00477550272335        4.77040468590173        4.41468903074002
C            2.60870129229935        5.36653423747115        5.59975032740290
C            1.28301135269892        5.29145769360677        6.02062012318231
C            0.36389268892895        4.60846440455810        5.22680106386044
C            0.75910258658896        4.00622145731334        4.04355370752869
C            0.84072457921857        5.95163307032308        7.29608902560343
H            4.66957086515641       -2.47126060955277        4.60487676177836
H            5.23030526392341       -2.69804142574552        2.93682097033804
H            6.23970949964903       -1.83289022817691        4.09754203543983
H           -3.14009631621768        2.61880537724759       -0.83885234620700
H           -2.15987534644419        1.85611535738393       -2.09182740486100
H           -2.76493506696200        0.89033773812877       -0.73442969530130
H            1.69451692465704        6.18571322641900        7.93149406533508
H            0.31581821054275        6.88224060683024        7.06974255605520
H            0.15630585880255        5.30524277735072        7.84662053358510
H            4.62364414511968        1.57786783148608        0.87306454686548
H            5.63302704053847       -0.57071757316988        1.51670889788801
H            3.37442152912424       -0.53445178958848        5.15832710512751
H            2.36239249449424        1.60566284886824        4.51518841979424
H            0.88646020537772        0.94667852257610        2.17970726342069
H           -1.14681303932153        0.39435749668514        0.92405357643292
H           -0.81463726985627        4.07262792410743       -1.24933229382547
H            1.22753052686550        4.62574777940736        0.00554883839107
H            4.03914484728258        4.84277574649381        4.09535352057901
H            3.33760462920075        5.89833395300574        6.20166719575271
H           -0.67359209432673        4.54472053830544        5.53753305834322
H            0.02655775680067        3.47976668976026        3.44195590999807
