78
 energy: -119.160756042576 gnorm: 0.000466847665 xtb: 6.5.1 (579679a)
Au           7.96130793605781        3.56558254007981       10.54662820878300
P            8.10113868100491        1.29137950211715       10.56162910936745
Cl           7.91006069197184        5.81036958195790       10.55313936743894
N            8.28752088182395        0.20889436454948        9.25302244624390
O            9.42227388846597        0.82460031240397       11.41112405303533
O            6.84633050134861        0.72019562333560       11.43087186008043
C            9.63629258709656        1.50553792093997       12.60129991354131
C           10.35553205079419        2.69745184218403       12.57329689264708
H           10.87850185367129        2.97423993292326       11.66711556488715
C           10.38714658552908        3.51829337119575       13.69168264495375
H           10.95734569254040        4.43920881117700       13.66378521109527
C            9.62305223627893        3.20413931789319       14.80897571261372
H            9.56533039942096        3.88901858177345       15.64645552566766
C            8.91616522035980        2.01248153969563       14.82156985050336
C            8.96977519560978        1.11549771926555       13.75363564537136
C            8.26664746269741       -0.17750844986107       14.09656291972489
C            7.31339458363994        0.27287196746269       15.25343259370382
H            6.34349910419262        0.52405124923154       14.80636382175561
C            7.92680669680451        1.55694642579063       15.85473442795851
H            7.15959169755329        2.32033910994572       16.01350500493947
H            8.40506594188679        1.37583056189850       16.82044948661050
C            7.09278777617799       -0.81350292530807       16.30407955727287
H            6.62569748217010       -1.67715580483922       15.82137826176369
H            6.38715994537159       -0.44380714357451       17.05409308137428
C            8.39790168485250       -1.23488547402811       16.99877130275515
H            8.30531179383108       -2.27653304504883       17.31960060524742
H            8.54730760313127       -0.63710228575310       17.90253079906248
C            9.62893101640920       -1.07545886477610       16.09170307078096
H           10.08075036115051       -0.08990638614135       16.23820312395696
H           10.38178853790623       -1.81919559802595       16.36954116457380
C            9.29083520176142       -1.24070694987096       14.61145781032452
H           10.21351668107099       -1.12178624055793       14.02976588587769
C            8.68220754753544       -2.62361254601618       14.29582752699265
H            9.42955274986247       -3.28941243642144       13.85390093453180
H            8.29541924659563       -3.12219770382647       15.18794374403683
C            7.59232226485411       -2.33023846279534       13.30601450416377
C            7.49981676796146       -0.95922878566274       13.04904532342118
C            6.72113267093670       -0.55482323006180       11.97103447108214
C            5.90097564446402       -1.46986667903018       11.31627970331210
H            5.25950596970074       -1.12202148489877       10.51663540429007
C            5.91609907507725       -2.80872453700645       11.67582321663701
H            5.26707508338145       -3.50982564805861       11.16412731231922
C            6.81338480261892       -3.25903240798906       12.63673719700606
H            6.90302848159541       -4.31632003566711       12.85605639876866
C            9.60389304547296        0.10519808594858        8.57971151607512
H            9.41177430339202       -0.01237751559300        7.50505269665256
C           10.42178437562082        1.37396084908612        8.75123970660270
C           11.62954712787547        1.40642823538546        9.44285105856482
H           12.02817971251412        0.50979400269645        9.90106135205572
C           12.33792668192046        2.59441721894771        9.57545405053144
H           13.27621354986446        2.59781378254559       10.11915801586745
C           11.85357562577762        3.76895705159031        9.01808494361338
H           12.40624795507467        4.69465807642206        9.12767787168847
C           10.65708825027692        3.74712579807307        8.31518898534608
H           10.27101885599507        4.65339579177515        7.86369121322947
C            9.95350783552585        2.55881622435878        8.17882694403129
H            9.03346940527218        2.55170098872426        7.60890426396159
C            7.08763760618734        0.03389871149557        8.40615078791595
H            6.23081278464933        0.19005278578076        9.07311698754197
C            6.99446929902509        1.08295887181382        7.31608200588880
C            7.51259268043884        0.90025027832858        6.03605553990047
H            7.97671184299850       -0.03836763525748        5.75607825688912
C            7.43431112703910        1.91817561991472        5.09373481783807
H            7.84649712745568        1.76202145462761        4.10296238578392
C            6.83569865331243        3.12732812739131        5.41457376740912
H            6.78185494902616        3.92106158901163        4.67840993934912
C            6.29884658943166        3.31311273231158        6.68134998683322
H            5.81922909220363        4.25017955024192        6.93941693046050
C            6.37381803488061        2.29543883743952        7.61944457259672
H            5.94084101428367        2.44223139264418        8.60340811150438
C           10.29615484692573       -1.16108243354870        9.08483677862183
H           10.46026001077882       -1.11088377711189       10.15988699966767
H           11.25119412743859       -1.29876212091015        8.57803519473079
H            9.66482356025566       -2.02433831114572        8.87713632434589
C            7.01519225743932       -1.40575446459803        7.89852932441836
H            7.85543288790848       -1.65692469420795        7.25361019244942
H            6.09142821062068       -1.54537671777533        7.33720246923999
H            7.01757829583800       -2.08668553674876        8.74944534794536
