59
 energy: -100.812152809688 gnorm: 0.000265352297 xtb: 6.5.1 (579679a)
Au           7.70491355738568        8.21661186844207        9.80402563706989
P            8.43045678930911       10.39697332005554        9.48702907943893
S            7.05245747261385        5.98623041247531        9.93585523670933
C            7.65431462769902        5.65284822196557        8.36283246836165
N            8.15525412194946        6.72392740194130        7.71678431792197
C            8.64606170237177        6.60960069636927        6.49313076466605
H            9.03049740453871        7.52066352963952        6.04186644264220
C            8.67929708592497        5.40177960180374        5.81306501381649
H            9.08820003155606        5.34029431702081        4.81250374837811
C            8.17890125642459        4.28408553230060        6.45760884716387
H            8.18807134942483        3.31279542348175        5.97386939558356
C            7.65268831934183        4.38544300540255        7.74555390323826
C            7.16843647086166        3.10015194327290        8.33464656954150
O            7.28223404129945        2.04491314071606        7.73035764277705
N            6.55652885600623        3.17642101783927        9.54501647951897
H            6.70223295424781        4.02607140902580       10.09770555926240
C            6.29743942385763        1.96087639077175       10.28237429398333
H            6.55282791974492        1.09884073793989        9.65826995303257
H            5.24033750041685        1.88827899182870       10.56067907290064
C            7.12650192481173        1.95217851275666       11.55108516679126
O            7.00645017136116        0.78763340907163       12.19378941636534
O            7.78727496262917        2.87270789919698       11.95040512972252
C            7.74257770023170        0.67389601349674       13.41252076841514
H            8.81107945305503        0.80011772100620       13.21752615966449
H            7.54563368373529       -0.32112150422555       13.81000734028674
H            7.41393220189431        1.43810378164324       14.12242142790777
C            9.57907689554490       10.45093861584137        8.07567376386410
C            9.64242129430508       11.51260786317190        7.17071279636820
H            8.98215625917042       12.36457119991493        7.28877163604388
C           10.53730454302003       11.47921071357228        6.11163182223851
H           10.57482745846013       12.30848233541179        5.41400779283511
C           11.37950390805971       10.38877374866141        5.94203668821527
H           12.07531196884602       10.36426529221443        5.11106919018115
C           11.32394461055628        9.32679473938703        6.83507274205559
H           11.97552513588527        8.47033545047306        6.70450985832289
C           10.42858247401663        9.35765061276438        7.89221906134781
H           10.37724257113691        8.52252517121136        8.58174288446401
C            7.14473586526364       11.59792827922824        9.01825944799316
C            6.93701012952305       12.81237535724038        9.67259123124210
H            7.58742399715922       13.10605375451103       10.48875786873475
C            5.90240383967120       13.65100692171202        9.28379744491944
H            5.75259272252200       14.59300252332324        9.79953437400965
C            5.06225561206569       13.28769730649034        8.24085603953654
H            4.25448385063672       13.94485990358688        7.93949712025214
C            5.25532226570509       12.07711729677416        7.58709348385638
H            4.59853487391280       11.78640658470471        6.77498832089095
C            6.28415947302761       11.23613044153869        7.97691262313037
H            6.42851908652628       10.28687730877773        7.47159749262383
C            9.35679373138592       11.22708867842804       10.81995215404636
C           10.28212555835950       12.24541111026771       10.57776189718951
H           10.47387950342470       12.57062164346856        9.56107441228846
C           10.96187456612643       12.84014660192011       11.62912454333430
H           11.67833201550685       13.62895094960178       11.42869562885867
C           10.72857845575151       12.42714191231446       12.93440947944507
H           11.26299974382761       12.89305012186350       13.75450910454302
C            9.81439895793106       11.41348636061261       13.18623890847320
H            9.63257242158538       11.08447379272405       14.20309246957073
C            9.13587306697408       10.81562473659894       12.13542479143934
H            8.42743216079484       10.01806987610552       12.33205309246057
