78
 energy: -107.670572361385 gnorm: 0.000166371349 xtb: 6.5.1 (579679a)
Au           6.36494800008991        6.26220661442283        3.54748293405922
C            6.14349213712135        7.85967279667614        4.72464025875757
N            5.82045680257564        9.10499007527383        4.34969295798195
C            5.75876873534225        9.94175279372067        5.43480401455144
H            5.51366392480310       10.98463353605805        5.33753805388568
C            6.05502598631937        9.18353279437559        6.52099580595689
H            6.12117484446280        9.42880151670404        7.56627291255905
N            6.28598080238443        7.91391939718277        6.05598489403940
C            5.57820771685101        9.48129597235436        2.98935499122497
C            4.27777500596581        9.38403890929641        2.49097734509053
C            4.06804103851958        9.72807459810565        1.15761858671707
H            3.07297812362712        9.66159073233596        0.73395817232278
C            5.12224886571569       10.15070548403097        0.36311620072263
H            4.94247607379575       10.41457292181147       -0.67249069038042
C            6.40569088775399       10.23161251434416        0.88017226051135
H            7.21938801794754       10.55426428016150        0.24158233484631
C            6.65819510812027        9.89755554030221        2.20866770303933
C            3.13631189646460        8.89004615907964        3.35486773558427
H            3.49739129344451        8.76661486927135        4.38380258819887
C            1.98037163959802        9.89598674943493        3.38020833694493
H            1.20959884452337        9.55265071792286        4.06988801699669
H            1.53484627860015       10.00902989355503        2.39232462832289
H            2.34064238730329       10.86891157376226        3.71410974710464
C            2.66205922074180        7.51879774246328        2.85631062920609
H            1.87526804048016        7.13594386142357        3.50606698495650
H            3.49495745209891        6.81168392187538        2.86476546256704
H            2.27620208300307        7.58542516386524        1.83914193936653
C            8.06322291217267        9.95376455183074        2.77075377176015
H            8.02254711719283        9.75114262647119        3.84857430150647
C            8.68706192302077       11.34008984550729        2.57679689931843
H            8.04860893838216       12.10192547040820        3.02382477249694
H            8.81648385203893       11.56944756688661        1.51953087577286
H            9.66337994614496       11.37411656854039        3.05981536456360
C            8.92751181382286        8.86573150167715        2.12057565087131
H            8.47776660687189        7.88423153321981        2.28793627974811
H            9.92557627183191        8.86924434149586        2.55839126333311
H            9.01439163148513        9.02653231681272        1.04612340092995
C            6.63317838829864        6.78025241794403        6.85915487202903
C            7.98399797184387        6.51367639197305        7.08975067312768
C            8.30164323586822        5.39058564252676        7.84999079978539
H            9.33937342065832        5.14891201598216        8.04687727363747
C            7.30208334064397        4.57352307159632        8.35446184274558
H            7.56584860880967        3.70329138342748        8.94399536487339
C            5.96828809236027        4.85619107080378        8.10503746880072
H            5.20072902839373        4.20061560479145        8.49882473516728
C            5.60778460742413        5.96993968691687        7.35015886189075
C            9.07221809727981        7.39170427439888        6.50826040777106
H            8.60755300596299        8.26367584979233        6.03067810495982
C           10.01905720768817        7.90283387106330        7.59959363069849
H            9.45222014892005        8.42711723341921        8.36881069467047
H           10.74145999173914        8.59356919979618        7.16525629498273
H           10.56290843240088        7.08166803926107        8.06553981455280
C            9.84208590564532        6.62000954294470        5.42863335797249
H           10.59268679294279        7.26447471378421        4.97139871182661
H            9.15333014460931        6.28204694332685        4.65068134162061
H           10.33923475062417        5.74745390518943        5.85225138999334
C            4.15392327298719        6.26659907951704        7.04765954843014
H            4.08869642296448        7.23435905499201        6.53423723246145
C            3.32379665277490        6.35983816847100        8.33252833786819
H            3.75302365194599        7.10668983152867        9.00023337382397
H            3.29365866293133        5.40279878930606        8.85247434066158
H            2.30278859771855        6.65322914088056        8.08936571929377
C            3.58993706752759        5.19574008175328        6.10491918396154
H            4.18118111516484        5.15987693442027        5.18688574976549
H            2.55846278016286        5.43227858707449        5.84426919814940
H            3.61772310983720        4.21122466006302        6.57163142799512
N            6.59151199985344        4.62836281570400        2.34221210997107
C            5.57162482337571        4.17875195147629        1.60570687113377
H            4.64193379398740        4.72627038104728        1.69163147446550
C            5.67961710397527        3.08063679023334        0.77817550391587
H            4.82630353911778        2.75101395443493        0.19923470410493
C            6.89962273397510        2.40526462612819        0.69997252250124
C            7.95982043633702        2.88298186235098        1.47355944855336
H            8.92632362353655        2.39590516211720        1.44914513676930
C            7.76238238469623        3.98868457652702        2.27404717629023
H            8.56101373055617        4.38665612125481        2.88666554182426
C            7.05753947884958        1.26594384044762       -0.14174894199616
N            7.18492162501565        0.34721527867818       -0.82043868646621
