45
 energy: -76.501336498163 gnorm: 0.000628987925 xtb: 6.5.1 (579679a)
Au           6.93913263286815        4.44581752874503       15.70282087720876
P            5.33279349789822        5.90390820750220       16.45165889802365
N            8.23912351963684        3.02098476317261       15.11999871126940
N            9.91775874086374        1.80671047807590       14.32325358904509
N            9.27899198510181       -1.59202390771701       14.93947914224180
N            5.75842996810167        1.19914978536591       16.58647841131086
C            9.42793228874574        3.01683185693112       14.48692528771737
H            9.91552098482925        3.91881790700527       14.15440440655806
C            9.00922832346377        0.95498092992491       14.87607179166332
C            7.95128640700778        1.70582428825697       15.37930403136166
C            4.30641103589990        5.18823326470049       17.76579929017712
C            4.15524468211125        3.80062630328539       17.81753621943015
H            4.65998822554309        3.17116735731628       17.09260886323992
C            3.37014020676944        3.21412466573205       18.79734465251528
H            3.26690984306251        2.13567337676828       18.82625515186599
C            2.72686036341560        4.00497889669713       19.73906728059074
H            2.11506227920614        3.54690541432341       20.50781034760824
C            2.87318524144106        5.38566422571650       19.69997242311028
H            2.37584374690192        6.00678117130485       20.43647943768981
C            3.65746748307461        5.97641770117061       18.72176627671555
H            3.77480785417410        7.05440759496997       18.70369116799890
C            5.95040319413734        7.45416090384498       17.17578183050971
C            6.86503172830667        7.35681890952417       18.22913327495527
H            7.15894385760053        6.37786388069618       18.59347035175390
C            7.39298654055442        8.49723879892802       18.81111682243512
H            8.09770552316180        8.40799198816411       19.62996655907978
C            7.02322640604286        9.75159512896149       18.34227747194170
H            7.43886050802726       10.64438679458857       18.79510311566560
C            6.12399475879052        9.85895080921906       17.29097600622834
H            5.83487932678834       10.83581175741576       16.92003648444961
C            5.58972758605367        8.71855670562924       16.70912761455115
H            4.88740661364419        8.81289403572315       15.88874100936223
C            4.15713564987241        6.43566788654956       15.17030167892023
C            2.79452334676813        6.61935731893299       15.41313963145178
H            2.39317675640146        6.44568145612012       16.40522696974878
C            1.94793515034056        7.01872805965796       14.39036691937640
H            0.89132129403401        7.15538942182068       14.59105846107561
C            2.44859578638826        7.24067791268892       13.11476767597740
H            1.78379352617976        7.55122250516828       12.31697763423351
C            3.80141205815119        7.05759598915770       12.86091713324662
H            4.19656346904646        7.22424061576746       11.86534355698469
C            4.64847232962337        6.65322229920375       13.88016891816130
H            5.70366421978957        6.50082217715722       13.67817212317972
C            9.17142156767458       -0.44505526798880       14.90326514363048
C            6.76059949250302        1.37909810382259       16.04033735577114
