36
 energy: -79.978416435663 gnorm: 0.000271215307 xtb: 6.5.1 (579679a)
Au           3.73518781161083        0.33680359032880        1.78655520560194
Cl           3.08289121297621       -1.56083306144296        0.79740741305216
P            4.41724992961018        2.25284544697775        2.82784105306619
F            7.40385889320421        3.43411997308506        2.72451035600298
F            4.26523022907190        4.98882536927520       -1.42754908519586
F            6.86319021528581        5.79499619073690       -1.28638918166618
F            3.26780797084026        3.37615443300806        0.56022631352851
F            8.41688971380855        5.00238298448725        0.79269940308336
C            5.55916592753288        2.01395883153422        4.21995943470505
C            5.78031483066458        2.98562837509082        5.19993298868719
H            5.27140780227348        3.94134749286575        5.14007558074600
C            6.61584218217470        3.80508276095212        1.72396370672334
C            3.10570861982239        3.30607935666556        3.51553546895825
C            7.15064663313605        4.61381574805710        0.72593526445858
C            1.95873684717878        2.66610062828993        3.99005980795231
H            1.87665265283372        1.58778285089520        3.90642955942616
C            3.19575807472041        4.69658686144886        3.61524407144869
H            4.07277537349997        5.21259799198001        3.24008191371378
C            6.65182142600872        2.73626970809442        6.24728670253744
H            6.81910223868143        3.49845517144397        6.99988464663033
C            7.08977375207523        0.54055731519126        5.37191354063719
H            7.59618097971902       -0.41545300100094        5.43821225179039
C            5.02724959043879        4.60941431870396       -0.41253191921703
C            6.21821716677944        0.78744992662624        4.32284115636742
H            6.04368922688684        0.02440883576506        3.57214239399942
C            5.28865095382379        3.39285340529315        1.68866735702286
C            4.52793866593181        3.80331225813947        0.59695366240171
C            0.92792297868989        3.39677547429529        4.55907367243047
H            0.04281987192933        2.88752964507807        4.92254234951101
C            1.02806034375384        4.77790733624983        4.65637848027180
H            0.22107860111711        5.35132479056240        5.09775675345076
C            7.30825817674457        1.51516974820630        6.33515270244635
H            7.98764122190284        1.32319422806169        7.15764944367329
C            2.16102354214286        5.42510004649938        4.18184101672413
H            2.24040140888620        6.50405980139207        4.25178610986741
C            6.35695493427509        5.02039516719977       -0.34136959485953
