17
 energy: -28.838353387843 gnorm: 0.000068166396 xtb: 6.5.1 (579679a)
Au           6.59964059080136        3.73322351465529        1.55709412771650
N            9.01843128038620        1.77374274683329        1.55672025097989
N            4.99810289673345        5.03465213507039        1.55705141971957
C            8.12246487705998        2.49832545950290        1.55711473539709
C            5.19254597117091        6.35174890916207        1.55704187900435
H            6.22345883744124        6.68097657352115        1.55704670573760
C            4.14917384878430        7.25792681260616        1.55700824190136
H            4.36282829822272        8.32014957319744        1.55700511318315
C            2.83662562937688        6.79579961456040        1.55698582160511
C            2.64933173399775        5.41460399375951        1.55701008456137
H            1.65145257888030        4.99235080131934        1.55700722602975
C            3.74641969908376        4.57695646110342        1.55704527104588
H            3.63343540038331        3.50066380210123        1.55705546142682
C            1.66749743772900        7.73362131250088        1.55695885450419
H            1.99682651777704        8.77192540871733        1.55696149074031
H            1.04821340995611        7.56087025529668        2.43858307525798
H            1.04825099221568        7.56086262609259        0.67531024118908
