26
 energy: -39.079818586704 gnorm: 0.000168167448 xtb: 6.5.1 (579679a)
Au           6.07353153618104        7.62162526265623        1.72229843081027
Cl           5.91179672672235        9.46408228590520        0.44665124040730
C            6.23235876913327        6.00130289819531        2.89086324891759
N            7.32567415559235        5.61921433450180        3.56902830824494
N            5.28571616216753        5.11443307414379        3.23023690779105
C            7.07054328431756        4.50842611814798        4.33329597234315
H            7.82233127529106        4.04517224448998        4.94842120264801
C            5.77307855591178        4.18285100229362        4.11389274178244
H            5.16648706068642        3.38355645920007        4.50290640199935
C            8.58305622248585        6.34481224703483        3.53063706333823
H            8.76644555599575        6.63519743090463        2.49290537807437
H            9.38144123542700        5.67639041957787        3.86423478293147
C            3.93004732481186        5.13852975218491        2.72377041755079
H            3.84338237649143        5.98174184784443        2.04090317593378
H            3.22689900519753        5.25872324255975        3.54963145828217
H            3.71419891935248        4.20923774967069        2.19391925657256
C            8.30083237714689        7.25694873824925        5.88737796764525
H            9.13066650955004        6.63440487117501        6.23941018168565
H            7.37877204509428        6.67721540626934        6.00064316029371
C            8.50986965329365        7.59555401379665        4.40962295992787
H            9.44087715601593        8.15591022526822        4.28423349963930
H            7.68850612295278        8.22380815624918        4.05299409612233
C            8.21240347421755        8.52174021240727        6.73866104279680
H            8.06513670040964        8.25799621613504        7.78617797175278
H            7.37512559290522        9.14086244630354        6.41488170752192
H            9.12922220264823        9.10606334483657        6.65280142498703
