20
 energy: -43.250415379970 gnorm: 0.000207946224 xtb: 6.5.1 (579679a)
Au          -1.95662349394842        3.62518030255804       12.65515926250783
Cl          -4.21343609622563        3.46017240688381       12.99261302252828
Cl           0.31535986257093        3.71073304332574       12.43438041083665
Cl          -2.26296394585645        4.41565758648503       10.57966637552721
C           -2.00841460921575        3.54440296420394       15.64211595658510
N           -1.66861780082419        2.88836235797553       14.50168008510756
N           -1.25452315713246        1.67524502382700       16.97852817123947
C           -2.55744455879700        4.83888791213954       15.61508104074418
H           -2.71299384012574        5.32661359770634       14.66188644002725
C           -2.15355457845786        3.58337842704674       18.08489335652095
H           -1.98482922890445        3.07912939810135       19.02869004377626
C           -0.92356670496330        1.08828020464105       15.85688425562575
H           -0.48030499851991        0.10012749789299       15.91043603537165
C           -2.69445720426362        4.84044943608905       18.02673167497762
H           -2.97025242766825        5.36131809157995       18.93614212626345
C           -1.12917679902778        1.69355811682773       14.60907192861063
H           -0.84585974355578        1.19155812492917       13.69411777846578
C           -2.89396289081084        5.47066099176192       16.78450244508166
H           -3.31830603598467        6.46733540210260       16.75621248241151
C           -1.79597174828913        2.90964911392246       16.89680710779110
