43
 energy: -87.844495909170 gnorm: 0.000372439469 xtb: 6.5.1 (579679a)
Au          -0.52295014174520       17.27880540723296        4.32273817489115
Cl          -1.16371297458913       16.34194234484459       12.43363286642967
Cl          -1.95315866903534        9.72820067145570        2.58722411976450
S            0.36714389980946       18.92259771311963        2.97800651448723
S            0.10830384929071       15.20971660221221        6.43943736918557
S           -2.60113553550765       15.11219936207499        5.66517123053710
N           -1.13041462921572       15.86070754713444        5.57718060593197
O            1.24130732256265       16.03958683313575        6.05174447779586
O            0.21433499297734       13.78119427546252        6.24201405700832
O           -3.46879743879746       15.97040614585295        4.89325079876591
O           -2.93321619888718       14.82818094442878        7.04257235616927
C            1.61775655392157       19.55538281050208        4.12580279429771
H            1.95337443856238       20.52539743523904        3.75630460150226
H            1.16952824728878       19.67679220827163        5.10858651124707
C            2.74031927195275       18.53205772993393        4.11459850271276
H            3.65545332996377       18.95403201379289        4.53565918672262
H            2.45095144972067       17.66012911943239        4.70636911654403
C            2.94338208782371       18.13284359669141        2.65335850504704
H            3.51708241172395       17.20674281073361        2.57916037760046
H            3.49485749132157       18.92065761281602        2.13166352429693
C            1.56933309590524       17.95730788488645        2.00823121153861
H            1.25893052298190       16.91477318431567        1.99810405592135
H            1.55148941796446       18.33992474093755        0.98807449751716
C           -0.23192546193381       15.51741670801129        8.14420457281479
C            0.02976056030864       16.77623783819707        8.66182805144141
H            0.45953006667161       17.54668881236811        8.03358158235450
C           -0.25808753060275       17.02921349764664        9.99334070184995
H           -0.06106672310455       18.00451178888153       10.42119117114253
C           -0.80561723189689       16.02318441593540       10.78236538875636
C           -1.06399896880932       14.76424693186395       10.25230837508922
H           -1.49237435656098       13.99177704131387       10.87881413946786
C           -0.77596771367060       14.50794975043433        8.92178699182203
H           -0.97788687086300       13.53730326469791        8.48802479946135
C           -2.43654441133277       13.57673509478138        4.80441007852079
C           -2.19812920097636       12.41313870219704        5.51725687642209
H           -2.12405286274419       12.44299791866462        6.59650401471353
C           -2.04959994187819       11.21972725228401        4.82932428955354
H           -1.85946054420406       10.29812905591394        5.36519765194484
C           -2.14131668854319       11.20922253058404        3.44240884964229
C           -2.38616167881523       12.38157105674008        2.73589938676479
H           -2.46009429421381       12.35607911778298        1.65564421446800
C           -2.53375994416731       13.57652762319896        3.42195618801955
H           -2.73160899868234       14.49866260402794        2.88946721977021
