36
 energy: -67.605975931280 gnorm: 0.000152787774 xtb: 6.5.1 (579679a)
Au           9.85823595910599        8.39118381235351        4.45931160266160
N            8.46407275303948        8.41196660407814        3.00809325441266
C            8.38595792787294        9.56616961025737        2.30461513849430
C            7.55964004242050        9.66258904002282        1.18324103131577
H            7.51861268830574       10.59962639575931        0.64218093387689
C            6.83002766774981        8.56557910546659        0.77728137721780
H            6.18899012374811        8.61903259636577       -0.09476383714412
C            6.94043672244661        7.38347686996178        1.50564997278441
H            6.39306410404853        6.49532772335509        1.21817648127331
C            7.76812814883370        7.34512536812408        2.60681073417107
H            7.88086222376661        6.44333897471866        3.19970739451501
N           10.69222368697377       11.27922589783694        4.29627514678562
N            9.97513930338920       10.25312341541351        3.87156634670494
C            9.20887628643097       10.60816067596616        2.81519721724659
C            9.45863697979095       11.94977377488868        2.54588571882872
H            9.02330877701642       12.55842159723982        1.77183022471887
C           10.39632526995514       12.31279023870515        3.50381802940811
H           10.86458258712335       13.27144543592358        3.66063227670750
N           11.27679555168881        8.35932704060031        5.88650185408853
C           11.44023309933588        7.16646807863799        6.50581783440835
C           12.48283172403265        6.97209560424075        7.41399399973130
H           12.58653190830963        6.00665417593367        7.89320685972547
C           13.36592411822060        7.99962533145877        7.66874654352201
H           14.18554560093122        7.86529442029856        8.36475506367431
C           13.18883706944932        9.21195734998245        7.00619538303041
H           13.86293183074935       10.04274814843971        7.16883554116256
C           12.14033671719096        9.35030491309874        6.12267585693992
H           11.96924680788262       10.27854164404782        5.58735768146892
N            8.73659021488336        5.63339395341027        4.90578234647167
N            9.60636944172722        6.59034165001716        5.18002239727655
C           10.47759481374133        6.18774051549012        6.13291289193441
C           10.14304281433793        4.88451018695190        6.48575357131124
H           10.62619535360718        4.25417710362824        7.21264341273808
C            9.04830448412687        4.59263979425528        5.68261287858717
H            8.46939905601466        3.68409197819253        5.63483079651042
Cl          11.72846814175897        7.54443097487604        2.61654604344031
