42
 energy: -97.017376995034 gnorm: 0.000086201567 xtb: 6.5.1 (579679a)
Au           1.85370155318899       15.66147365315506        3.08431697523388
F            6.69118900578944       14.07717201883617        2.10575380937148
F            0.29837992189985       15.26631908992388        4.19099804717905
F            1.74473043094337       21.12241698796175        3.84994966347778
F            2.27690085429971       21.39447402085280        1.78095186571075
F            0.34713950599002       22.04570935945407        2.48882451062997
F           -2.34639011222887       19.20829684499829       -0.45662824764627
F           -2.10722786277814       17.06483022749063       -0.39032957634576
F           -3.25124559410535       18.07066276119487        1.13367312682654
N            2.80204137293267       13.94109144630374        3.66182039667277
C            2.19993737185920       13.04630704089883        4.43823110954856
H            1.32203120383264       13.38874841484256        4.97065203943691
C            2.67087359784868       11.75244201995917        4.53691933410614
H            2.18448466836039       11.04132401307021        5.19184457625854
C            3.73147236886054       11.37909828381859        3.72880477011681
H            4.07107420933827       10.34909746269108        3.72019348309290
C            4.35428822368048       12.31068862864014        2.90139544398603
C            3.90846115901587       13.63871334105558        2.95144022574113
C            5.40053881879855       11.81229178641907        1.94619542638382
H            5.41208803841756       12.40345106870631        1.03211171092625
H            5.19264379369518       10.77327189240293        1.68798253573444
H            6.39174802149779       11.85266707670312        2.39873504554020
C            4.43918015577409       14.80293001926423        2.23839299541269
C            5.74852394219673       14.97483897357914        1.79410704800833
C            6.16280552969355       16.08588831118087        1.08169661931470
H            7.19336340124237       16.15538470895060        0.75878377582361
C            5.24401140282311       17.08827178793536        0.82025057718500
H            5.53926036118054       17.96302377192294        0.25290274303879
C            3.95523094399729       16.99128218819935        1.33199339074675
H            3.26401594117241       17.80847482302612        1.16632196705616
C            3.54608357039917       15.88191778714918        2.05784554363919
C            0.92020153622219       17.30933940413938        2.41217759077694
C            1.37638349432449       18.58932463009418        2.71777640256338
H            2.26687616022825       18.72367662987720        3.32042246108244
C            0.70217912916739       19.72218748529274        2.27040158180740
C           -0.44404671259923       19.60463330610898        1.49573114162554
H           -0.96379798468508       20.48466861482709        1.13789303419426
C           -0.90974146932789       18.33136868139145        1.19088474553460
C           -0.24141470241938       17.20150267190527        1.65116681099875
H           -0.63958882969054       16.22536667410389        1.40254612371933
C            1.26111678430659       21.07893881106520        2.60255896588317
C           -2.15840320509755       18.16943328053133        0.36561020956892
