75
 energy: -106.115894190163 gnorm: 0.000074398201 xtb: 6.5.1 (579679a)
Au           4.00274853898525        4.62953322120943        4.38472976458666
Cl           3.68201878439964        6.88239787968233        4.42162119374146
Cl           1.74298813381275        4.27007086595908        4.38651438517753
Cl           6.26715401352684        4.92016355813361        4.38195813356301
C            4.23747799887497        2.64086679442031        4.35164181163320
N            4.25907542673062        1.81479665233416        5.40953113195434
C            4.30256914393132        0.49872247377151        4.99371871836570
C            4.30260748705906        0.52308187157413        3.63318560004972
N            4.25997361479214        1.85319979942198        3.26488697013594
C            4.33492520242915        2.21078220650361        6.78870088351464
C            3.16016922302092        2.29809979802880        7.54274568103394
C            3.27517151531752        2.62585509986112        8.89243837773506
H            2.38454997036040        2.69649336762298        9.50536751257853
C            4.51458547510610        2.85333459662930        9.46554736288176
H            4.58563614797048        3.10236167710810       10.51813871746965
C            5.66538030567385        2.75735266289597        8.70058244685284
H            6.62805445575863        2.92823041287636        9.16693196163099
C            5.59969118131724        2.43590426545602        7.34705612406732
C            1.79269797024234        2.02932391177875        6.95051584894612
H            1.88422825163173        1.97818948786917        5.85908131187098
C            0.80488769249776        3.15076413525794        7.29696214735695
H            1.24226617887006        4.12238215299391        7.07476937495988
H            0.52962969859977        3.12254572290988        8.35147140605119
H           -0.09955586130336        3.03438620122166        6.70056893870076
C            1.24959017486441        0.68529389510814        7.45454347517524
H            1.92394335543963       -0.12766980111735        7.18722839298265
H            0.27564107408956        0.49014733968837        7.00565239816479
H            1.13796198488839        0.69795486025136        8.53926200611266
C            6.87448276829937        2.30420303770490        6.53865688533491
H            6.62137680669731        2.34915926278859        5.47270256191756
C            7.53765029022760        0.94813505896760        6.81658694780188
H            6.87415830771983        0.13122469837263        6.53502683932611
H            7.77934996064343        0.84974820348522        7.87537650564437
H            8.45742959126421        0.86208511748805        6.23781165350696
C            7.86302125735794        3.43791397935339        6.83604264368450
H            7.35824621882792        4.40126687918129        6.78996279465526
H            8.65750212678517        3.42855061065117        6.09003545725085
H            8.31536020142608        3.32276629641074        7.82121537824391
C            4.33844478218739        2.29932116783925        1.90127160618183
C            5.60453807001755        2.53844615845035        1.35168695252901
C            5.67178399179251        2.91142736418362        0.01152902457962
H            6.63529716875508        3.09466128727959       -0.44833088613881
C            4.52143136600557        3.04389477745115       -0.74867271788744
H            4.59382040346714        3.33355760311026       -1.79072108219802
C            3.28080365753410        2.80112952606437       -0.18456009534805
H            2.39049307941111        2.90058164644965       -0.79393077967571
C            3.16421900019464        2.42173485372161        1.15139615718505
C            6.87868931729150        2.36857676488260        2.15409758330474
H            6.62621494821294        2.37795560175683        3.22113252536435
C            7.53163585488577        1.01825709969423        1.82800413301803
H            6.86442701810760        0.19658996902533        2.08561605203349
H            8.45359070111987        0.90717252986791        2.39900194208213
H            7.76761827758984        0.95360100438928        0.76534051010883
C            7.87637426404302        3.50396362738632        1.89624502704183
H            7.37971155363762        4.46925458567960        1.97669221208765
H            8.32744478954135        3.41987464806304        0.90735362435376
H            8.67109387322154        3.46151918510282        2.64087513575853
C            1.79564594418030        2.13602778791593        1.73295277647052
H            1.88666266712670        2.04325077285939        2.82165782385943
C            1.24834201458591        0.81371449259595        1.17854277677995
H            1.91738236708704       -0.01166313927182        1.42005326140857
H            1.14232099505562        0.86571557895926        0.09443901850950
H            0.27117927248853        0.60763833319672        1.61539253200358
C            0.81191827759208        3.27329888567639        1.42909597956872
H            1.25460054971743        4.23467206973948        1.68314981911857
H           -0.09093514360855        3.14056946177887        2.02446295604611
H            0.53285468477220        3.28282513373141        0.37524853509655
C            4.33462280660165       -0.66894412505760        5.91999704790545
H            3.41336126937516       -1.24843849998811        5.83361501504693
H            4.44466879199509       -0.33912570974086        6.95126538922070
H            5.16712411002528       -1.32804433782702        5.66828963552099
C            4.33003502558774       -0.61063170340737        2.66547903710499
H            5.16369070750998       -1.27847539751303        2.88866509857322
H            4.43435783315075       -0.24394845032763        1.64613810300674
H            3.40909104164848       -1.19277880755433        2.73615852576789
