31
 energy: -54.537813581226 gnorm: 0.000135695980 xtb: 6.5.1 (579679a)
Au           5.67220734886314        8.21336518262837       14.09070935283751
Cl           7.47808105672333        8.61513593552272       15.35202062077447
Cl           4.88909125552349        6.74457023130088       15.58814394006194
N            6.23700588839317        9.50130575843564       12.64992270870378
N            4.11144039549590        7.96671959496954       12.84319701392019
C            7.32614593100707       10.25524729909360       12.60179293292258
H            8.00902345854531       10.17886684869685       13.43993506352056
C            7.58584604621594       11.10362959460980       11.53255502766050
H            8.49388192225658       11.69406358531279       11.55231764857481
C            6.71044709913379       11.19728656686197       10.46467998359418
C            5.54223440350207       10.39357823252433       10.50990351145331
C            5.35225573858913        9.56088954114071       11.62708930865770
C            4.20550147657434        8.73342213801174       11.73154209387217
C            3.22742456527069        8.72426620142776       10.72118220747421
C            2.10304693876929        7.87481566409986       10.88529811400943
C            2.04990807771770        7.10921116396388       12.03701659285344
H            1.21523332768745        6.44216411969329       12.21560476091234
C            3.05885248436211        7.17460436931121       12.98999197880673
H            3.02112672813735        6.57680130025220       13.89322989120457
C            4.53836205755540       10.36986236133634        9.49438176382629
H            4.66461647376568       11.00340026742690        8.62503706278934
C            3.43816784559642        9.57669664794056        9.59489066329744
H            2.69744107826496        9.58518041293197        8.80475093647994
C            6.99079560366937       12.10834301427871        9.31587252616415
H            7.05355405594743       11.53865952235662        8.38744677677589
H            7.92875044762773       12.64103246651622        9.46337388524267
H            6.18694731285507       12.83774185028000        9.20551450032624
C            1.01836480981855        7.80412918437664        9.86215985500785
H            0.56854769042415        8.78757521477812        9.71782909746719
H            0.24153078969727        7.10549644469033       10.16829467820676
H            1.42366769201429        7.47903928522867        8.90271550260121
