338
 energy: -537.358698180913 gnorm: 0.000044713361 xtb: 6.5.1 (579679a)
Au           2.39801695495762        1.59450409519508       44.93598867617236
Au           4.99014018900433        2.64896608089903       45.34862944919918
Au           2.72245950534299        4.27756208428267       45.42684534419042
Au           4.71879827625864        4.37438099922286       43.34368106842756
Au           6.43426602997167        2.14492837523833       47.73187674232893
Au           1.56324701534597       -0.40469379186510       46.95541187802126
Au           7.20858181290555        0.86002773574217       45.39884919357934
Au           3.00815654528281        2.39367971264408       47.43529621955927
Au           4.84523056819728        0.22935020531088       46.73397472992831
Au           7.16632081980903        3.41837169956524       44.08595157696328
P            4.11049883328732        5.52617930123496       41.34710242992703
P            7.68166624734765        3.57614093462311       49.16308016549762
P           -0.61727295106449        0.38868720047689       46.83660577934605
P            8.81082831397119       -0.69807499417305       44.51184128031055
P            2.12027434328423        6.57091403565066       45.18236922465063
P            1.58172280589369        0.20975857514743       43.16195115629948
P            3.21733712728708        2.72701666391492       49.80808793106239
P            9.40945173185400        3.49126735162053       43.34352459146428
C            1.71125888018028        7.37007699785243       46.76438946522536
C            1.26719977502243        6.56828182266231       47.81792664685151
H            1.22959149754764        5.49153846826412       47.69030473552709
C            0.87666925647428        7.13224347668266       49.02187071570948
H            0.52939797030867        6.49427541243649       49.82676299904898
C            0.94097060475187        8.50793980330797       49.19632368388118
H            0.63654438208097        8.95056483427216       50.13726380498130
C            1.40452197864862        9.31435575442302       48.16527965437137
H            1.46622864773750       10.38768778463965       48.30107856706872
C            1.78574187894039        8.75350201739561       46.95627153992677
H            2.15323199726760        9.39043159385976       46.15974054684760
C            3.48981961496161        4.23739333949167       40.21449451630760
C            4.22960593896249        3.79371728682831       39.11579806589549
H            5.18837353452705        4.24457563656871       38.88982604605062
C            3.74612019463243        2.78377016370986       38.29707030748362
H            4.33380992070804        2.45710094959700       37.44712121747643
C            2.51354175807948        2.20370396234539       38.55748755909993
H            2.12888700877329        1.42378572752140       37.91117361907416
C            1.77536746994479        2.62482964620902       39.65529030691092
H            0.81207367513672        2.17602354836720       39.86293154472719
C            2.26528494820164        3.61792215161675       40.48739603007637
H            1.68658907154113        3.92619580737592       41.35162651506892
C            8.23461209967920        4.97867356007686       48.14064953890532
C            7.45617665315424        5.32187311615459       47.03289677168285
H            6.50116136758587        4.83194796137365       46.87923041314839
C            7.89229833209296        6.26626448853122       46.11967269998279
H            7.28450091984284        6.48834527808446       45.25055044348711
C            9.10456909770979        6.91482408909640       46.31656850226571
H            9.44788711513671        7.65199914082452       45.60039127719117
C            9.87622925145739        6.60564592640963       47.42767951991377
H           10.82246040655787        7.10851744491148       47.58888907321740
C            9.45328275108934        5.63641038708024       48.32627882913606
H           10.08399473324515        5.38207988689112       49.16992377539781
C            3.48196457120653        4.48438083850533       50.19064700770387
C            2.91866246237685        5.12253985987054       51.29858729923092
H            2.35288601307945        4.54953848734247       52.02346018234644
C            3.09077665888532        6.48565995568741       51.48733722815948
H            2.65038464882083        6.96491560553787       52.35368139734698
C            3.82967123924619        7.23128783287202       50.57926095791807
H            3.96553836624415        8.29533940900305       50.73081688507106
C            4.39294219001565        6.60867826203929       49.47295838448797
H            4.97716568545335        7.18271641803012       48.76312041358237
C            4.20649923604696        5.25141226339357       49.27341155822926
H            4.63472991170229        4.77174584044933       48.39866263285228
C           12.84844690395423       -0.22714695801011       45.12757828268158
H           12.70884083678185       -0.80750823381012       44.22342060052879
C            0.14819810430652        0.75669777651059       42.17747064106961
C           -0.31126871895939        0.04635161257026       41.06363544168052
H            0.16059733876409       -0.88646742660120       40.78101268363358
C           -1.37786028665962        0.52261392656880       40.31791039023476
H           -1.72346148580988       -0.04033886205956       39.45898487612028
C           -2.00961705055157        1.70690080553188       40.67525191319331
H           -2.85040199452474        2.07016833878244       40.09670338839472
C           -1.55960347165415        2.42219194425937       41.77580318711631
H           -2.04988216293980        3.34419725607447       42.06539896052684
C           -0.48026970291200        1.95751087591216       42.51115863991970
H           -0.11929860888103        2.53030464407905       43.35747413206339
C            7.71654048220298       -2.04334007922518       43.94941617447731
C            6.65805520711874       -1.70527257217549       43.09810322975006
H            6.53598510476591       -0.67533027911513       42.77591584418103
C            5.77501763044810       -2.67449631880522       42.65210050760994
H            4.98168537709790       -2.40384479685334       41.96612267820662
C            5.91224121944666       -3.99205139114078       43.07019894661482
H            5.21646500000220       -4.74671537955379       42.72298277230337
C            6.94599416510229       -4.33544010527506       43.92816336569565
H            7.06451999980500       -5.36001386207181       44.26088959110716
C            7.84371277127220       -3.37107874125415       44.36124738440260
H            8.64803412856275       -3.66308037027849       45.02554844181603
C            6.05691634993326        3.47314974268571       51.42058554583351
C            9.24432003306061        2.89850115958634       49.80290461392829
C            9.79122411184582        1.77163365019049       49.18934864372419
H            9.28387966669029        1.33326660484649       48.33707658316559
C           10.96698333016101        1.21042297483632       49.66175447845183
H           11.37391914683760        0.32994215502800       49.17855900067206
C           11.62189456739223        1.77758733639078       50.74632953303196
H           12.53911373552602        1.33645855644632       51.11763964464366
C           11.09676354417443        2.90991795627377       51.35496295710439
H           11.60547712156769        3.35912134768697       52.19966365003177
C            9.91378400285672        3.46540768366960       50.89313615769229
H            9.50050782583405        4.33515710601477       51.39082765723026
C            7.58097562976863       -1.22356954113811       51.19395013272685
H            7.44616750249069       -2.23677833282979       50.83156373751217
C           -1.55982044423098       -0.48899229161444       48.11764733217370
C           -0.91372139263120       -0.74667171495339       49.33147097630633
H            0.11332912223599       -0.42262692400776       49.46947350827462
C           -1.57141584969926       -1.40788670974813       50.35542833309946
H           -1.05685560088516       -1.59685777468424       51.29050888634853
C           -2.88195135193158       -1.83146743578256       50.17811296713135
H           -3.39485745210996       -2.35619584578253       50.97525855523492
C           -3.53208318818920       -1.58408378874589       48.97694159016746
H           -4.55477343542992       -1.91286346020972       48.83446883107152
C           -2.87999977100885       -0.91449635918858       47.95261923106199
H           -3.40045645044281       -0.72156816458261       47.02172193315020
C            6.58152032070151       -0.26524886530954       50.91358376260036
C            6.75001001401152        1.07515364538503       51.35790571206140
C            5.77522187925422        2.06614834922000       51.02483977765428
C            4.61443702975104        1.69435962504532       50.36625198171398
C            4.44238830338436        0.33475344711587       49.98202942286241
H            3.52025240121442        0.05257587386786       49.48661232062842
C            5.39698041338342       -0.61020465455100       50.22326367653460
H            5.24160273123307       -1.63626861942073       49.91118027962544
C            3.27977923499896       -1.46357455659225       47.10378299051850
C            4.12114782444806       -2.34915411368900       47.20699202328882
C            5.10971769701600       -3.36104685349461       47.31144892657591
C            4.80498044418088       -4.70792472278680       47.08807986935416
H            3.78195869989299       -4.99917343159566       46.88554367292627
C            5.80624596945860       -5.66446168624887       47.10971748596234
H            5.57445002661560       -6.70467107616935       46.91465592729586
C            7.11748118648689       -5.28558480022116       47.37717007122836
C            7.42355227250889       -3.95456795738359       47.64629428069760
H            8.44506574347078       -3.67666059083234       47.87432521633713
C            6.42882456177573       -2.99775775084767       47.60870647089132
H            6.66821571860767       -1.95571481772217       47.78919620113793
C            7.88420004108953        1.37934744206575       52.14804278490878
H            7.99591019398417        2.38134233726288       52.54478714347800
C            8.25069700588138       -6.27255200874407       47.29238345201011
C           -0.97915007136125        2.14452857177527       47.17828057747696
C           -1.63247724468883        2.56263654984423       48.33847850295345
H           -1.91881037465538        1.83554724555449       49.08892922742660
C           -1.93509847254427        3.90320977558862       48.53376678561764
H           -2.45570974903650        4.20848968991830       49.43387260835695
C           -1.59455084174812        4.84598180322755       47.57517936699385
H           -1.84391106568965        5.89009838908976       47.72182502689835
C           -0.93540987326819        4.44345459468333       46.42057352287272
H           -0.67449052473102        5.16883583568513       45.65915028968823
C           -0.62512043437975        3.10784319696189       46.23048946746572
H           -0.12383374841556        2.79857234771988       45.32093966312348
C            8.82549144332166        0.42313223352149       52.42712173527243
H            9.68536497612614        0.67206772543043       53.03786931390589
F            8.86280549848822       -6.14687442721681       46.09760831240457
C           13.77777991722479       -0.61923427185612       46.05496561496142
H           14.36335699928478       -1.51590256375993       45.88945785112850
C           12.86964363571982        1.66760598722878       42.06125750176541
H           13.00226852591394        2.28567724534858       42.94184416566338
C           12.55520688876180        0.06949562908253       39.79489406312182
H           12.42905748770476       -0.55668514458688       38.91888408865022
C           13.70719325119970        1.81396072121573       40.98748599893176
H           14.50189326477170        2.55026186529391       41.01568680782675
C            1.79821593810367       10.00767702943021       42.97339661185896
H            2.51374989109953       10.05273386699478       43.78626497197605
C            0.86363651099304       10.99899398025325       42.83049960146551
H            0.83877478152969       11.82543227243074       43.53113590750724
C           -0.06713425909318       10.95730028393697       41.77693015724044
H           -0.79956089513224       11.74992061044751       41.68084158148167
C           -0.03999228537057        9.92565932717265       40.87645245905907
H           -0.74875553703921        9.88828278901740       40.05690696010870
C           13.54805347834597        1.01180233063038       39.84284394020384
H           14.22035768292650        1.14253951016502       39.00325285987209
C            1.03767566147597       -3.86480934464145       45.29784584995183
C           -0.06651145874127       -2.96900371072434       45.24945092951839
C            0.04844437360907       -1.74377304724713       44.52844193616301
C            1.23367545498475       -1.42953982568886       43.87162304806191
C            2.33208673521776       -2.32240324077548       43.96528122343738
H            3.26920498338512       -2.04993852258897       43.49463189183136
C            2.23211662588107       -3.50962639300978       44.63127853396652
H            3.07920195636849       -4.18583258339241       44.66303398683765
C           -1.34724878655282       -4.51012182890083       46.61228059061676
H           -2.26615516813734       -4.77232359334440       47.12348956212616
C            1.84351306246911        2.22502411374541       50.88932789014753
C            1.92370799079597        1.17367882291865       51.80502096488365
H            2.85108460516312        0.62763736719171       51.92902313163742
C            0.82210771147884        0.82310941985359       52.57137267332516
H            0.90238452634149        0.00652393964890       53.27925687280215
C           -0.37094248835647        1.51908304902058       52.44180796265132
H           -1.22740118660948        1.25001959505769       53.04826487132502
C           -0.46324031143894        2.56498832432980       51.53258395996190
H           -1.38985326442588        3.11817758458431       51.43428565924169
C            0.62869735588580        2.90725300239419       50.75184515089609
H            0.54539541669855        3.71569553601118       50.03235279915838
C           -1.26028965585230       -3.33183166420204       45.92012781963253
H           -2.11199791103923       -2.66326702030684       45.87910676874513
C           13.26939009308895        1.28674501140117       47.42959159702335
H           13.44320313552768        1.89419110217329       48.31077960281505
C            0.65925069975740        6.88430461355882       44.14541097244802
C           -0.20337844727912        7.96577005995465       44.34420273409808
H            0.00731343573223        8.69363865666974       45.11846739332859
C           -1.33043995344824        8.11779077163698       43.55163492576444
H           -1.98898798867471        8.96264180869966       43.71514633976662
C           -1.61179137561683        7.19949085958453       42.54957831444897
H           -2.48900910582126        7.32624969778067       41.92655080109594
C           -0.76701464762737        6.11574947928146       42.34936597710915
H           -0.97729007191142        5.39680574577777       41.56617499507857
C            0.34948969678394        5.95118072034691       43.15198750482286
H            1.00067208677806        5.09498177076389       43.00824327074308
C           -0.25318481382622       -5.39253632009849       46.65918461036488
H           -0.34216443545144       -6.32402147767285       47.20547050267932
C           10.52818532723850        2.62875157429744       44.49556279808385
C           10.72276246542239        3.35483260414129       45.70219816944812
H           10.19233405655017        4.29214836536018       45.83250673692947
C           11.57208947782569        2.91337914466300       46.67291026687456
H           11.71515094736388        3.49055724559595       47.57958466457626
C           12.30490765072925        1.71682541473257       46.49047760037154
C           12.07962771710229        0.94627532773961       45.31758429551097
C           11.13976825171043        1.39653623474870       44.34081139692579
C            0.91174393582156       -5.07843807477282       46.01098179464362
H            1.75505240984242       -5.75988996051329       46.03219083599873
F            7.84712643503115       -7.53145104803840       47.40709789249568
C           -1.17522781482423       -0.90539961996305       44.39117882742728
C           -1.53096163098314        0.08929488194855       45.29036642950037
C           -2.71513112121237        0.84042734747489       45.06074497287011
H           -2.97698314132258        1.63151196651631       45.75286320891240
C           -3.52454657726168        0.58488186555659       43.99181043427746
H           -4.42147760937509        1.17297963937773       43.83434670917705
C           -3.22367866180196       -0.46583874527666       43.09579568138881
C           -2.03890809770756       -1.22428371280387       43.30047929657153
C            9.81467749880778       -1.23541392147047       41.93904090905578
H            9.04098605391200       -1.99212402987611       41.90543821226647
C            9.94724288967164       -0.43328160212278       43.10073111821543
C           10.93369255368761        0.54391888551808       43.13831039283016
C           11.82792471402112        0.70704979841018       42.04310008340224
C           11.67671263450969       -0.10846119886575       40.88820834970333
C           10.64859535413239       -1.07746686456834       40.86858978205555
H           10.53179790501551       -1.70469576771297       39.99210768547945
C           -2.61789027382792       -2.59075101773029       41.38278159142313
H           -2.39946857394261       -3.41979432881518       40.71993782723278
C            6.63168668830416        6.10387559891382       52.20701078465051
H            6.84857213700360        7.12280877993484       52.50702639819360
C           13.98844983889502        0.13923676746292       47.21898151376680
H           14.73169456475920       -0.18173265712520       47.93909612977193
F            9.17638930317663       -6.03777814573867       48.22682922095504
C            7.10836793820785        9.69506964607596       43.78206249666772
H            7.82052071144567        9.86091717512076       44.58301676069502
C            7.32729334562159       10.21468034464756       42.53260945704345
H            8.21701371048814       10.79866123572955       42.32889428274476
C            6.38044297765274       10.01471537967326       41.51302436648616
H            6.55271907239264       10.44489720193469       40.53338384734788
C            5.24068481846517        9.29404481399947       41.75345740420082
H            4.50694921261733        9.16909497429801       40.96686931808870
C            5.79181439014510        5.31225734295001       53.02367633433180
C            5.49729555666243        3.97821353825342       52.62555525047774
C            4.65160221487954        3.19432943618756       53.44812872335671
H            4.43514329988726        2.17240593429830       53.15874901529716
C            4.11618704868008        3.71339552059797       54.59717051827751
H            3.46996109792358        3.10420339214440       55.21828876086957
C            4.40356706641581        5.03467628302045       54.98515720892522
H            3.97287901662262        5.42659156740862       55.89890826079040
C            5.22608861933919        5.81603831342844       54.21732600391631
H            5.45631514842338        6.83321488636167       54.51355272137202
C           -4.07615037459771       -0.78554901893344       42.01462712595920
H           -4.97375439108145       -0.19537488146170       41.86833628948221
C           10.17464237239280        5.13618177030348       43.21428685356516
C            9.34920081380572        6.24066936046722       42.99295766407131
H            8.27374192302810        6.10654821367199       42.95050942774794
C            9.89037898326840        7.50675099639763       42.83239379668154
H            9.23394934642992        8.35005770617515       42.65139489943122
C           11.26475704960251        7.68963765061865       42.90336091963422
H           11.68787003547366        8.67940772561076       42.77991415625033
C           12.09464055810532        6.60130472532275       43.13680672131834
H           13.16779360770658        6.73901155500825       43.19758120360226
C           11.55709679847276        5.33266424045079       43.28856268185496
H           12.21319792986989        4.48971885284814       43.47240581377135
C            8.68697201662119       -0.88357257404945       51.92833900390157
H            9.44776232781642       -1.62304678888229       52.14849391658372
C           -3.78062652721640       -1.82773189525647       41.17599822465328
H           -4.44197825755373       -2.07463086468886       40.35407108335610
C            6.89468223725943        4.26872735184774       50.65124913008477
C            9.54180418710920        2.82952589863828       41.65671865872564
C           10.46225977683238        3.31148291066641       40.72183874085915
H           11.19423682151814        4.05438542892463       41.01579892736890
C           10.45297561505266        2.83723492433594       39.41898176492445
H           11.17529330570846        3.21702829248952       38.70607093110226
C            9.52740085556769        1.87920429655838       39.02921713587013
H            9.52374383180764        1.50896796956172       38.01102895856810
C            8.60500802862603        1.39634480450282       39.94826141093959
H            7.88293315684102        0.64431995014476       39.65157953184519
C            8.60479813009640        1.87658877827300       41.24735429379382
H            7.87719023543263        1.50419917410732       41.96178769802939
C            2.85437214908739       -0.06002848548746       41.88642581324432
C            3.86138252489293        0.89891370530267       41.76214886010344
H            3.88201534171056        1.74201460853338       42.44465834297319
C            4.83067968875057        0.79587619062055       40.77814567648849
H            5.59783783994175        1.55775696246196       40.69866800848091
C            4.80317885008999       -0.27092921163906       39.89058118394565
H            5.55472774280115       -0.35205473831680       39.11422398282409
C            3.80939086268945       -1.23492390737430       40.00208542886887
H            3.78439184015045       -2.07065444080601       39.31283769552916
C            2.84363047637251       -1.13573070285222       40.99332296543297
H            2.08595301625661       -1.90568431015377       41.07912625409919
C            2.80505305418140        7.87097223983746       42.19453448117348
C            1.85008279201899        8.92100833364137       42.06513728575946
C            0.91606195054837        8.89073012148837       40.99349844056349
C            0.97628840794474        7.82666310176377       40.06578335806795
H            0.27295093807459        7.80536593752387       39.24112221583788
C            1.91471815436952        6.84246064020021       40.19188988826769
H            1.95271200420298        6.04393069178436       39.46140087150650
C            2.85019239513520        6.84662082845252       41.25849355709515
C            6.80221187171612        5.63784917800286       40.67558481375799
H            6.91189434529025        4.86760171482606       41.43236012841358
C            7.91115310362040        6.06550869840401       39.96288861404499
H            8.88329299035975        5.63212387572873       40.17012150263967
C            7.77346467313833        7.04508243379642       38.98920012539990
H            8.64071904622345        7.38700666637741       38.43702862888416
C            6.52039837339708        7.57814626211165       38.71853991569535
H            6.40565328135257        8.33360389793796       37.95015802045940
C            5.40809461440119        7.14305203430591       39.42245875997057
H            4.43139037490767        7.55174670156009       39.19013272527707
C            5.53831610279327        6.17504322759572       40.42232059385671
C            3.54909228808734        7.53763993443729       44.58819257320783
C            4.53071294977392        7.74035671116979       45.59507524156209
H            4.33935313021541        7.35142332091699       46.58935888124740
C            5.67857309815656        8.43488844071183       45.34935185398480
H            6.38774369750932        8.62057876569473       46.14808561013396
C            5.94124178161541        8.94768767277382       44.05782691557292
C            4.98997164949936        8.72467427952648       43.02533304762518
C            3.79541287810232        7.99070041697888       43.30141316338765
C           -1.76419444719054       -2.29472580414377       42.41309586498504
H           -0.87315398316058       -2.89257689901001       42.56365960005504
C            9.80697789327396       -1.50474015962389       45.80022212082458
C           10.78762928808188       -2.45508071844235       45.49618240810680
H           11.01634980673391       -2.68060858809653       44.46088310947655
C           11.46486781042396       -3.11191788378309       46.51201384356012
H           12.21819281789395       -3.84996321714059       46.26355649980771
C           11.17602100210056       -2.83315754440724       47.84131658734368
H           11.70374411904324       -3.35193549774489       48.63249660021747
C           10.20169573132182       -1.89387001398502       48.15490185303495
H            9.95733884384150       -1.68223823316339       49.18986404664745
C            9.52496669750678       -1.23425479249236       47.13918257123694
H            8.75377825172524       -0.51101103414735       47.38276957646669
C            7.16290290886690        5.60014648959385       51.05299594299419
H            7.79544856320250        6.22081588077061       50.42923176308194
