254
 energy: -410.326452062338 gnorm: 0.000284073367 xtb: 6.5.1 (579679a)
Au          -0.20094394202455       -0.69166317700125       24.42678637887012
Au          -1.16402705208956        1.79686520164882       22.71268746665831
Au          -2.72612200238289        2.95603799320726       24.92315100566746
Au          -5.33546855220190        2.25689041939156       26.33687465054333
Au          -6.09014750380854        0.63534819519639       23.90296123412154
Au          -5.62893708812206       -2.22983052879318       22.86300311473243
Au          -3.94240522731078       -2.83394774866207       25.18310675520015
Au          -1.23730586090328       -2.18593516418563       26.71922013098090
Au          -3.19004222934125        0.08980184370765       26.31695166280792
Au          -3.24954074195141       -0.24162343330702       23.03168326279527
C           -8.87535601750169       -1.55123028532828       24.14762590146086
C           -7.61505154312791        2.19784121796523       20.83706073660388
C           -2.11836071859200        3.19072289019868       28.38383834150393
C            2.41844500584365       -2.47065969006712       23.08298536981241
C            0.23570812007169       -2.36486303345408       21.23610245854110
C            1.90725272355391        1.64333776511420       23.98143895226562
C           -8.23031467303601       -1.69254798525382       25.37671770381754
H           -7.18325762755750       -1.96694966931760       25.40385847190545
C           -4.14710623142213       -2.72653437077991       28.79458926017913
C            1.48684906483912        2.73037709044240       24.75406624753437
H            0.76901484275556        3.43196226026348       24.33757307363717
C          -10.23252159601561       -1.21793121207257       24.13962874749873
H          -10.76209224454532       -1.12880308412477       23.19912884663220
C           -5.61561302305886        5.38011200008772       24.96562906921823
C           -8.90598376081569       -1.46824431265023       26.56600790985396
H           -8.37998738910651       -1.57316072087042       27.50816404847392
C           -0.87616922930830        5.29787304958371       26.80324292862905
C           -6.51294136844183        3.05583531778491       20.87582907505757
H           -5.74018322374217        2.90871380496551       21.62546422032791
C           -8.87641630304133       -3.34815314350361       21.99122916702286
C           -5.88226373065827       -4.59516269015125       27.59683508308395
C           -0.43578973573506       -5.13242093724957       28.49306962387212
C           -9.19303580727112        1.53714434819924       22.98897996969222
C          -10.90591604359394       -0.98628687641730       25.32741119676623
H          -11.95427711084374       -0.71205178174627       25.30365130251468
C           -6.71601384627802       -0.74500499485764       19.73923834836265
C            0.69989782501748       -3.61576178981746       20.82095389983905
H            1.59605483134970       -4.03428245782423       21.26367703925107
C           -5.11325305982071       -1.72678912358370       28.95314672654913
H           -5.88476984570044       -1.60205285074436       28.19950278304789
C           -8.60719743739535        2.41737904854944       19.88235497226995
H           -9.48681436431190        1.78560623262193       19.84998638251249
C            2.83613487760953        0.76285618850783       24.53681948114162
H            3.20096671419448       -0.07458879166981       23.95551006640147
C           -0.08746316499926        5.61248599382226       27.91227717615396
H           -0.35407837635557        5.22323228972097       28.88692176657465
C           -3.44398332634247       -6.41158529296902       27.44806274275135
H           -3.94359608524730       -6.68727010124484       28.38129579509336
H           -2.52592257449398       -7.00085208326206       27.36860765702328
C           -8.14724386669850       -0.95175978685036       20.13491536672891
H           -8.77677016006700       -0.29893766698208       19.51984422887299
H           -8.45718185772013       -1.98240650435331       19.94611554399498
C           -0.89618891521244       -5.51673097492763       25.72102147788568
C           -6.39020974808979        5.36066679202213       27.73166166024285
C          -10.24431977809096       -1.10515393089233       26.54339899601259
H          -10.77451516052141       -0.92068591578035       27.47033730418858
C            3.30732391131765        0.94699945726127       25.82944930309640
H            4.01929486286614        0.24288936149788       26.24482289223783
C            2.24430400262751        2.73030409770818       21.47132454889173
C           -3.56550311593709        6.59782105733775       27.45367191099878
H           -4.39275953924635        7.17861503688929       27.04124543057911
H           -2.63053652130106        7.00723833012484       27.05959001246704
C            2.87573829651601        2.02820996457885       26.58300042127818
H            3.24545916843909        2.17378912083630       27.59119120299725
C           -0.93562394844389        2.46322941833367       28.54560154537944
H           -0.13851788297412        2.55838638883338       27.81628839266191
C            1.96994665782912        2.92878595485737       26.03661885278807
H            1.64337362011346        3.78747320046490       26.61184644220778
C           -9.05017782082552        2.26848938586216       24.16712180618867
H           -8.05929715593507        2.40700654097289       24.58687743315649
C            2.11218856451062       -3.49445586643947       23.98511990724896
H            1.08544979299069       -3.62397729599346       24.31230118658823
C           -3.54738402501361        6.65991734080142       28.95753176014757
C           -8.48163149004274        3.45261858896225       18.96759335628393
H           -9.25724473721475        3.60848641616810       18.22669509846781
C            3.74566173481414       -2.29756997699148       22.68707408193749
H            4.01062710760919       -1.50090811122420       22.00234387366105
C           -4.63774455730643        5.96522274176380       24.16131424727505
H           -3.61987983466585        6.04910716228618       24.52493709985605
C           -6.39009090987958        4.08910763457719       19.96091553906508
H           -5.52212175913623        4.73768583308371       19.99646365901189
C           -4.36450173033800       -6.75290612579774       26.30245044683573
C          -10.47943240162931        1.37483165730538       22.46624304786686
H          -10.62263703092662        0.80641121231128       21.55407748821007
C           -6.70562271795322        4.66661706958491       28.90288236676001
H           -6.28657047724141        3.68009963400042       29.06921636027780
C            1.02404405142694        6.42871104092402       27.77037203902750
H            1.62809401924043        6.66700736088795       28.63803063969423
C           -7.37316514777886        4.28719837004745       19.00076271248604
H           -7.27779473050608        5.09306316346965       18.28256161376674
C           -6.23553264496941       -5.11711155910161       28.84468596400430
H           -5.53617422519959       -5.05944410040860       29.67122148486748
C           -0.93519815719045       -5.77958501296343       29.62394842157899
H           -1.99658404928333       -5.97445407558528       29.71729635707392
C           -3.14249891552961       -2.84994055646771       29.75257933579066
H           -2.38012543463099       -3.61103077878987       29.64405730973572
C            1.36381243801642        6.93826863120902       26.52432977562126
H            2.23492677655027        7.57380647935055       26.41687547158067
C            0.02131245995380       -4.33030682189655       19.84442203668969
H            0.39633276756655       -5.29757679822372       19.53078098422283
C           -0.51869284579520        5.80894069706936       25.55078039593261
H           -1.11606526318667        5.55569995365414       24.68090012253371
C            3.10005138635304       -4.33811681941927       24.46414566921284
H            2.84307274696749       -5.12909126599734       25.15983973348911
C           -6.80392431191700       -4.65731587720595       26.54979471034712
H           -6.53348781322949       -4.25832310000333       25.57781065556362
C           -7.47627950488480       -5.70596635752043       29.02628875123984
H           -7.73913829440260       -6.11654579788416       29.99418458299598
C            4.73524363034721       -3.13926782378184       23.17377417066724
H            5.76253608696283       -2.99398809552189       22.86027506837078
C            3.90522405773600        4.64805365565337       20.31523642888627
H            4.55118125102611        5.39121231373285       19.86277873714795
C           -0.92427763769449       -1.85236703630980       20.64916113249837
H           -1.29825936628593       -0.88403960176185       20.96097177250151
C            2.18597014007789       -0.20062977370435       20.40746503256357
H            3.09724744976700        0.38582538256116       20.24368025356495
H            2.41329391508613       -1.24764669397688       20.19682541485846
C           -4.96198035096280        6.44958406297449       22.90282061419716
H           -4.19505374042548        6.91023311601412       22.29073344958101
C          -10.13789527193489       -3.25705933543194       21.39531956931045
H          -10.59274951847022       -2.28661359205889       21.23295845446886
C           -8.11015412789516        6.47516946226465       29.62811521969748
H           -8.77458995647261        6.91041491450808       30.36520102823420
C          -11.41880538274089        2.63572905223714       24.28816518006753
H          -12.28124711469546        3.05553468414917       24.79238037456915
C            4.41640419255577       -4.16053914218809       24.05796565182748
H            5.19389685225358       -4.81410636172969       24.43545659366684
C            1.70123127181339        3.85436404637821       20.85054594903485
H            0.62429339432473        3.98101273426113       20.81814183256751
C           -8.31504318245510       -4.61068434338367       22.19439912678672
H           -7.33560905956278       -4.68943363094001       22.65638307161585
C            3.63307397367947        2.58872341517613       21.52759778782146
H            4.06987514420266        1.73863050306445       22.04038918535488
C           -8.38410969944056       -5.76536465221686       27.97636094644071
H           -9.35509057162788       -6.22295550646382       28.12512975656861
C           -1.04201904328281       -5.01571810702393       24.42306834109310
H           -1.46920300909623       -4.03106127160820       24.27050525259881
C          -10.14787057208246        2.81148838890286       24.81664329846540
H          -10.00972381732161        3.36806165497323       25.73691160182542
C           -7.55269212863737        5.22264805063755       29.84767359114728
H           -7.78281771780543        4.67479166115044       30.75405739286405
C           -5.09080519724045       -0.89406522023130       30.05876143529793
H           -5.84944583630016       -0.12809966045160       30.17215555502165
C          -11.58054731268164        1.91753866114196       23.11049064479868
H          -12.57058315647796        1.77715317702623       22.69206032774917
C           -3.12289892206560       -2.01640603787687       30.86103392991906
H           -2.34281243762785       -2.13227556683021       31.60459368219153
C            0.93903790522148       -4.88498937564950       28.40565768983963
H            1.33343741657338       -4.37107027206602       27.53389700853860
C            4.45599785902237        3.53842769649564       20.94295251485149
H            5.53203776013103        3.41550189988186       20.98494405108290
C           -4.38323877992306        7.50243745679701       29.67783146581587
H           -5.08425905503544        8.14849868332886       29.16285810591530
C           -0.77877853887623        1.61013046006688       29.62643344276674
H            0.14486098469393        1.05501286687544       29.74168213082724
C           -8.04824852120411       -5.23688551762880       26.73740274450637
H           -8.75312948724596       -5.27751534608849       25.91468295706378
C           -4.80010416166419        0.43999943488174       20.17316381321459
H           -4.30262943189827        1.16160381216920       20.80950391380137
C           -6.16605790523420       -1.30006806336389       18.59038656828572
H           -6.75265593613319       -1.97509902174964       17.97948659549720
C           -4.86988828409917       -0.96078180645061       18.23981862932336
H           -4.41219769564347       -1.37427774172781       17.34883471658035
C           -2.59258901847305        5.84458166929302       30.87321032351370
H           -1.86679134592307        5.16616968045228       31.31155122112559
C            0.58893390997817        6.62902410961935       25.41367692886361
H            0.85266668351351        7.02084132529549       24.43809709261204
C          -10.24361201558631       -5.65502713743000       21.21702230793717
H          -10.77534392719500       -6.54949499121760       20.91473894140412
C           -6.97212164717112        6.61300238784143       27.51258106772462
H           -6.76293467733213        7.15574016270544       26.59781429401225
C           -7.82451124353611        7.16427329786058       28.45694922324251
H           -8.26843728369809        8.13619816687021       28.27564451865440
C            1.10615031422478        0.31306071482362       19.50097298007510
C            0.91421230134378       -0.11997244581733       18.19627429366839
H            1.54977400623195       -0.89089310561919       17.77851811148282
C           -0.10163283632816        0.45420185941140       17.44912139034301
H           -0.27945109922373        0.13914940491963       16.42772932766788
C           -0.88617111343633        1.44229504974271       18.03195114090340
H           -1.67884074986137        1.92474739175570       17.47439798855966
C           -0.63131791177137        1.81397787671725       19.33994687698160
H           -1.21981944734339        2.57628420196748       19.83855250626304
C            2.52712049565794        4.80855035967110       20.27606584574455
H            2.09307404322894        5.67835184108288       19.79656053352861
C           -0.07483092344616       -6.18229679419073       30.63534373688892
H           -0.47426091038581       -6.68711403872291       31.50730523654798
C           -4.18251312124624       -0.05720116918022       19.04043724596522
H           -3.18112520211030        0.26730595928417       18.78592900404767
C          -10.81106689192798       -4.40480760380192       21.00737083143350
H          -11.78643019723891       -4.32255201023848       20.54197071137890
C           -6.26212480395791        6.34492623774913       22.42848699027584
H           -6.51510541054202        6.72890522470247       21.44729837193698
C           -0.32566488488744       -6.78233959974170       25.88699035942765
H           -0.17746535037629       -7.18272210279569       26.88331720387223
C           -1.13262920339322       -3.81152779919572       19.27396611663506
H           -1.66662646077784       -4.37470639094688       18.51767069337792
C           -8.99430813332155       -5.75693111745930       21.81328125207654
H           -8.54619978902601       -6.73005418702875       21.97924245947310
C           -4.10161181830395       -1.04631921105488       31.02231495717364
H           -4.09553273697025       -0.40989958996740       31.89927854944437
C           -3.39170250816264        6.64859134883081       31.67108319513886
H           -3.29945497322997        6.61222030295063       32.74934407175655
C            1.28758013356163       -5.94107751084525       30.53383391127389
H            1.95550768085936       -6.25684151447550       31.32647534965366
C           -3.15282768814998        3.01180719539739       29.30120195966450
H           -4.07404381840357        3.56873006531545       29.18069427556847
C           -1.60284527124448       -2.56939330567500       19.67855659016777
H           -2.50828688768189       -2.16212408376813       19.24391304194880
C           -4.19532696562394       -6.28014526302327       25.00697271713440
H           -3.35790795673370       -5.64260812250138       24.75967505380835
C           -1.80465601697397        1.46118824464379       30.54907593991786
H           -1.67997839302096        0.79684820342783       31.39607299534748
C           -4.30514954724743        7.49657667089074       31.06247028703455
H           -4.94723780543599        8.13985472038002       31.65295961792934
C           -0.65916441991364       -5.76750295078613       23.32340707052001
H           -0.79172286878841       -5.36382565024165       22.32613163882695
C           -6.91880837510571        5.26456486490937       24.47019632474756
H           -7.68335533382803        4.79917453829359       25.08335897429423
C            1.79463080289936       -5.29046501135618       29.41566957861736
H            2.85771410072152       -5.09614332865387       29.33303113663899
C           -6.23728440831252       -7.92906970778480       25.69753777385172
H           -7.03477487753204       -8.59338754499405       26.01516206380913
C           -0.10413741987534       -7.02711081000113       23.50295836947891
H            0.19974369942198       -7.61451213581460       22.64446275518282
C           -7.24029906531662        5.74558447382320       23.21219131716487
H           -8.25460663328908        5.65218482960125       22.84165707447140
C           -2.99327026554526        2.16000002820742       30.38173727955639
H           -3.79947071480817        2.04427636575105       31.09694186150094
C            0.06592032458874       -7.52884537924548       24.78606035821797
H            0.50572291039689       -8.50850544595852       24.93246341714988
C           -5.11187516846295       -6.64427327719893       24.03212780612105
H           -5.00466182041985       -6.28103905853325       23.01602759792163
C           -6.15765094236453       -7.48331967633620       24.38557938002846
H           -6.89505829568504       -7.79277510538059       23.65513552888674
N            1.78938814994304       -0.05217080498961       21.81511644431311
N            0.34443806880087        1.25236426812723       20.05135891658818
N           -3.68466888079537        5.19599047582231       26.99139185462428
N           -2.66937560468346        5.84985096042152       29.54471202640283
N           -8.38322844774755       -0.61721783431974       21.54327233192940
N           -6.03141003571434        0.07497337926241       20.52987882551343
N           -3.06545055519762       -4.98097488760985       27.51757579588015
N           -5.36560297993144       -7.56722260725810       26.63191585234876
P            1.02660444539774       -1.41410401883937       22.57997905176539
P            1.14414604142118        1.53026575359618       22.29775140388788
P           -2.29073399774210        4.16575094589677       26.86161898432008
P           -5.24867672683584        4.57444731219213       26.55365033405808
P           -7.67293705609682        0.91228384604788       22.14350714229859
P           -7.94111263513066       -1.92387660299175       22.63195430315810
P           -4.30120863067103       -3.75441122807565       27.30038748504771
P           -1.44089462518113       -4.48236214060954       27.12578417859989
S           -0.84569213106705        0.11467776393215       26.52176472323314
S           -3.48833405295025        2.14093235905091       22.85703377375587
S           -5.53887514962071       -0.04840553204247       26.14658822574762
S           -3.31509658584418       -2.59679748227707       22.91914692458968
