380
 energy: -602.840519316119 gnorm: 0.000283690219 xtb: 6.5.1 (579679a)
Au          17.80051111961797       17.46031318905601       11.73802068165134
Au          20.03959468605996       18.39775713387980       13.43559605720026
Au          19.62435556101962       15.77215473374580       13.15741095438412
Au          21.80509475349981       16.63812596503332       14.70734122883983
Au          19.37626504774754       16.87207143854823       15.72283150597444
Br          15.58277721706538       17.58409008417722       12.91946818730864
C           19.96157170750507       20.52671713377105       13.16808346663317
N           19.03668633587207       21.27606146520811       13.78999990449673
N           20.69288084987971       21.36697014643666       12.41833989479141
C           19.19464447311209       22.61214882419550       13.48800441425607
C           18.52614261058780       23.75746355017450       13.90493131912892
H           17.70189492469598       23.71379712877972       14.60597818482255
C           18.97549028594931       24.96277042732556       13.39179564513619
H           18.49129002597182       25.88326618564759       13.69570756353460
C           20.04184153305964       25.02382588060729       12.48736150621281
H           20.35541984733847       25.99001174785829       12.11020306332482
C           20.70508678397663       23.88432208928948       12.06256406921064
H           21.52326301572921       23.94188380707769       11.35615827622727
C           20.27039476841262       22.67188207896679       12.58706972782651
C           21.78873719579606       20.94757846367219       11.55935845829479
H           21.86155696717921       21.66108818689634       10.73153929779959
H           21.53518765048388       19.96716658863925       11.14621450503564
C           23.10243897429253       20.87615054398401       12.30705051278528
C           23.55570980083635       21.95550644305406       13.06093935017209
H           22.94950396134704       22.84972179337068       13.14923802001829
C           24.78717233207306       21.89469288229639       13.69777076075002
H           25.13458242450773       22.74263335107178       14.27670331175846
C           25.57244815657155       20.75466443033453       13.59268146510001
H           26.53397822898262       20.70827665420592       14.09069281871889
C           25.12042426537456       19.67574769341546       12.84786025801152
H           25.72977202150386       18.78427836874932       12.75627057434619
C           23.89029298509275       19.73425195346877       12.20874311893355
H           23.54945740386662       18.89430645554026       11.61213734360381
C           18.03289253780222       20.73537522619968       14.68004724213631
H           17.73898688670113       19.75862953389867       14.28085012359731
H           17.15538068761875       21.38823519985003       14.65262114685348
C           17.62336217389495       20.46268426807121       17.12824176278420
H           21.43364795507584       20.46646994735916       17.87224746043037
C           19.46284428870708       20.32367079691757       18.74573625929765
C           18.06811685399089       20.33919467602723       18.47371133978931
C           17.16429817429566       20.24322323299667       19.55863528323535
H           16.09963211608554       20.28092845529163       19.35937442554979
C           17.62063223116569       20.10572446590753       20.84233286346309
H           16.91775176073945       20.02567131572636       21.66368735276141
C           19.00174251784492       20.07231918341472       21.10812472360637
H           19.34521670957686       19.96331116467727       22.13025308031236
C           19.90279942328370       20.18987397880475       20.08409180938957
H           20.96875132994638       20.18091302880878       20.28376497499858
C           18.95033872554498       13.74745349536487       12.96883150678153
N           17.70417138388191       13.28601943970506       13.15550208185808
N           19.73556123980266       12.67159074506794       12.79933936458660
C           17.67868419397135       11.90418041207774       13.11466622491438
C           16.64709880255029       10.97969648325544       13.22868443037283
H           15.62239662728929       11.28666353281255       13.39468741530064
C           16.99328905781466        9.64258297286184       13.12336237150826
H           16.22003566646792        8.88744618705367       13.20318656318030
C           18.31818705140669        9.24087955317236       12.91994823788348
H           18.54162938229432        8.18273552242659       12.85205160769164
C           19.34928482689120       10.15912865554379       12.80055029963512
H           20.37103450451609        9.84019797782707       12.63756296691903
C           19.00613383145995       11.50268046515165       12.89273098297149
C           16.55975385115647       14.11758990189834       13.46105428543790
H           15.69931012574541       13.75915350226590       12.88631760076859
H           16.78107103512766       15.13792928523638       13.12974863073485
C           16.21936576268597       14.12559821057694       14.93357858065695
C           17.00640168575925       13.49346303447743       15.88880809419781
H           17.91131100442184       12.97388388839667       15.59568823494098
C           16.63086980802097       13.51229625746876       17.22564103581479
H           17.24225307296644       13.00036089266182       17.96032419328672
C           15.47602699315033       14.17141602071222       17.61974240796061
H           15.18426433117788       14.18127819847573       18.66335817103761
C           14.69581059265475       14.81944027676913       16.67127570286473
H           13.79372365006943       15.33981295710462       16.97217069095668
C           15.06520125525550       14.79624299350978       15.33484239649661
H           14.45848615957211       15.30363517240126       14.59257349551790
C           21.16045960584128       12.77369384258822       12.57746725008729
H           21.32537444059692       13.59100216420249       11.86768335265968
H           21.50745832081073       11.84627909833111       12.11084050626221
C           23.31072119901310       13.18886775800153       13.75659960512257
C           21.94025991889747       13.04490267341216       13.84844804020530
C           21.30087463016073       13.15834252866276       15.09839933652768
H           20.22590216232971       13.04125307954487       15.15933746947626
C           22.02369591449055       13.41943397658885       16.23215704411239
H           21.52127463744302       13.52101036629254       17.18797379729074
C           23.43155016277912       13.52979711776910       16.18177028383113
C           24.08901275511456       13.39145724619408       14.92849717907986
C           25.50273670838941       13.44804320922650       14.89131657602801
H           26.00707280867369       13.32242964860404       13.93985641096949
C           26.22492986409000       13.65599187642848       16.03621754400676
H           27.30739018329628       13.69582338642031       15.99741451746136
C           25.57185140917060       13.82448790684029       17.27144856137857
H           26.15987993550639       13.99296269567843       18.16626257744604
C           24.20509955134608       13.76066622731446       17.34333643329513
H           23.69534592407972       13.87756807597577       18.29372099596565
C           23.90655774624654       16.37964928541392       14.49816090530435
N           24.86302295985747       16.75575066595188       15.35887532988330
N           24.52167940370950       16.07519683411450       13.34544107792628
C           26.10851638897917       16.70008101003483       14.76747799998386
C           27.38636424612466       16.98644084888967       15.23314606752754
H           27.55828228733556       17.33852507265369       16.24215283509484
C           28.43033763701655       16.80257864585309       14.34221338665227
H           29.44398654780151       17.01383837944131       14.66163476676665
C           28.21163426164683       16.35035233874042       13.03582831507784
H           29.06172634857758       16.22130279429438       12.37633374828058
C           26.94074764945969       16.06551046443690       12.56569487642493
H           26.77719902357867       15.71590986756646       11.55489072565654
C           25.88711053363223       16.24916502879658       13.45470099795603
C           24.60473636712635       17.13858987756748       16.73532964025279
H           25.36558106596353       16.68087324217468       17.37390588216212
H           23.62821785448703       16.72295557053537       17.00315107023238
C           24.58771626791648       18.64056639670368       16.90311743492054
C           23.67879869247881       19.41379020706281       16.18786591068265
H           23.00465844242045       18.93769106706003       15.48379808241412
C           23.63034398782250       20.78702163440184       16.37169696319688
H           22.92235952401582       21.38134776444224       15.80583774277737
C           24.49584694266943       21.39982750874761       17.26825330154416
H           24.45669489118028       22.47318429833379       17.41172340947277
C           25.41057049364706       20.63456593010920       17.97659978899553
H           26.09063448558951       21.10786585383529       18.67513751252075
C           25.45711463461706       19.25896799181087       17.79560436717556
H           26.16947828261497       18.66333149389312       18.35625296732167
C           23.81470121774682       15.62672603247732       12.15974550478567
H           23.95621967894567       16.35995594767484       11.35657921345907
H           22.75165441337177       15.62564117577233       12.41970139491877
C           23.97055051717599       13.11203314162657       12.42274049783978
C           24.23020042913669       14.25242224626753       11.68740681384157
C           24.82796955503955       14.14476842995493       10.41215499198938
H           25.02994851685224       15.05215392643242        9.85357996796603
C           25.13337986643167       12.92385858092813        9.87416782865544
H           25.58258567586349       12.85553957135537        8.88982427567977
C           24.85219177652767       11.73577618271767       10.58698956530393
C           24.27552396529073       11.82977957059001       11.88316007632304
C           23.99544241474192       10.63446139431375       12.58976183295869
H           23.57251285276612       10.69906111121928       13.58605759091842
C           24.25563252634541        9.41167690553803       12.02984528925865
H           24.03298738709343        8.50399363863499       12.57883864123553
C           24.81748305512147        9.32076564526166       10.74335364083718
H           25.01860759948028        8.34462711373909       10.31771172668943
C           25.11559330875317       10.45754642303836       10.03979580943441
H           25.55762299775883       10.39561282053062        9.05148312807142
C           17.93656639027331       16.82648818630830       17.28349814832861
N           18.16456237842251       16.27421088409522       18.48696662462882
N           16.77899078834641       17.49651137407615       17.37304768321033
C           17.13998683531665       16.57644447952354       19.36303175814274
C           16.91388738601805       16.24968366907473       20.69507065128562
H           17.62217956515871       15.66339912648194       21.26632469207519
C           15.73830768195094       16.71350281421899       21.26117036859320
H           15.52241930515240       16.48460549245865       22.29804729903001
C           14.81602825021791       17.46709706984759       20.52647593644271
H           13.90480701240848       17.79859517886837       21.01009531705876
C           15.03888882567250       17.80074032147844       19.20112323790153
H           14.32189472078587       18.38255081147351       18.63728203341016
C           16.22646044197925       17.35372540851436       18.63110464107633
C           19.21237544139855       15.29881910997714       18.73036085131039
H           18.85222414599941       14.59304516046505       19.48418838227451
H           19.35834356023053       14.74984968443409       17.79285745086139
C           20.53821010473770       15.88656885010066       19.15631016038426
C           20.92848007986009       17.16915912889252       18.79475770525340
H           20.24816993902681       17.80799464477608       18.24583744377702
C           22.18495920211276       17.64205042802867       19.14772824430533
H           22.48216947474318       18.64383135320719       18.86121947554882
C           23.05915363594317       16.83940666706229       19.86642949042959
H           24.03764106907200       17.21416018780633       20.14359016098426
C           22.67181583320277       15.55766472441245       20.23379626483839
H           23.34449729011372       14.92753810024413       20.80387028292296
C           21.41767630384579       15.08274276624822       19.87852547820155
H           21.11901048566160       14.08043576162853       20.16616377427833
C           16.12178917459387       18.06852352359479       16.20732623669576
H           15.37839784208948       17.34902749435695       15.84787785205684
H           16.88522152312625       18.15011552246094       15.42843311339684
C           16.16389899405371       20.51943559634947       16.84264282704821
C           15.45884460262424       19.40313934743716       16.44181291222017
C           14.07552735613900       19.50386372461829       16.17441311780206
H           13.54002370167669       18.61643230882483       15.85459858127967
C           13.41630116914109       20.69529361000847       16.30289702844396
H           12.35425888846068       20.75895818938796       16.09423711443123
C           14.11006419807105       21.86117063351385       16.69949551903345
C           15.50201968426331       21.77458566995927       16.97300662019650
C           16.19477004761703       22.95152748303792       17.34896355001984
H           17.25738336631061       22.89439063155391       17.55623861068188
C           15.53708318164976       24.14846105323448       17.45329531141508
H           16.07802208935953       25.04233299719107       17.74215156139860
C           14.15744460630746       24.23000301336042       17.19063774557728
H           13.65347646475914       25.18508950156562       17.28238059238104
C           13.45926714757886       23.11121252793345       16.82196567247072
H           12.39595532478276       23.16681940031275       16.61607538165338
Au          20.33532797880433       17.46109807535189       10.72750569844180
Au          18.09623600776631       18.39868746606346        9.03022751453006
Au          18.51273035657561       15.77302430148112        9.30619550093038
Au          16.33119284177049       16.63896473538133        7.75672774941044
Au          18.75964467293151       16.87402343344074        6.74121053967136
Br          22.55360162459603       17.58627686565166        9.54490867693369
C           18.17357074764315       20.52748361015007        9.29849878400303
N           19.09821063088506       21.27747991579236        8.67700878677655
N           17.44195760959783       21.36705272426358       10.04869578869644
C           18.93981231438826       22.61333702622141        8.97978382088973
C           19.60794307246795       23.75911136654680        8.56353405779539
H           20.43221589223342       23.71612425047552        7.86247476327975
C           19.15819450298095       24.96396717227154        9.07737496978635
H           19.64210123880805       25.88479780804776        8.77401441532611
C           18.09180852460629       25.02414475795203        9.98182835060812
H           17.77791207319655       25.99000429228215       10.35955420709824
C           17.42892307742440       23.88417952780534       10.40594174202189
H           16.61071432464860       23.94105444978901       11.11236535100303
C           17.86402488327208       22.67219463813975        9.88073473018941
C           16.34621977964446       20.94678814594675       10.90740132669387
H           16.27314196179411       21.65979133004809       11.73563268893292
H           16.60008571889444       19.96621777601451       11.31997945610402
C           15.03255911286809       20.87534756234611       10.15963846610216
C           14.57896733003536       21.95496407833598        9.40631452559147
H           15.18489138236658       22.84941958678582        9.31851229770124
C           13.34754131321156       21.89410328902951        8.76941762565061
H           12.99987853920993       22.74224365528298        8.19092873111603
C           12.56262304794007       20.75377119701032        8.87387690462954
H           11.60112269289503       20.70734653162419        8.37581062066778
C           13.01496395151553       19.67460050315715        9.61814026390433
H           12.40588851458926       18.78289529351558        9.70924244125575
C           14.24506037640703       19.73314859199334       10.25732530262248
H           14.58613902008742       18.89300093479648       10.85351841221783
C           20.10218374787197       20.73763461321272        7.78665021903998
H           20.39644447315096       19.76077303580304        8.18530353348270
H           20.97946321756532       21.39079166996069        7.81443001906683
C           20.51182357182594       20.46637845185740        5.33831381228832
C           19.59853166734425       20.59010909425339        6.36521982705194
C           18.21849200354055       20.58230050618559        6.08301911928295
H           17.51082833735349       20.69474637228408        6.89474025389191
C           17.76641806538725       20.45690097791543        4.79772678011344
H           16.70155069544398       20.46945002592749        4.59424691864515
C           18.67240974110077       20.32772707762613        3.72070889078253
C           20.06712790595920       20.34350424315411        3.99276780794995
C           20.97099318734151       20.24839418631105        2.90780663388660
H           22.03564435943757       20.28630269272145        3.10710759913727
C           20.51472222118321       20.11146531457469        1.62402551823708
H           21.21764072697851       20.03205782769918        0.80264079899638
C           19.13362645428784       20.07781267219137        1.35818951663354
H           18.79020253962581       19.96926624068143        0.33599503206579
C           18.23251699205449       20.19454898869291        2.38227005838049
H           17.16657160704152       20.18540227906503        2.18256978661573
C           19.18706723496113       13.74840542643733        9.49403257261281
N           20.43338388822689       13.28748629349468        9.30712966303985
N           18.40219527740691       12.67220156664263        9.66298335565583
C           20.45933242279974       11.90563946512601        9.34726909619794
C           21.49123118876758       10.98156672394910        9.23278051332482
H           22.51582814102690       11.28896831883991        9.06693011356296
C           21.14549181410417        9.64428493217351        9.33742961834818
H           21.91900095101067        8.88945074494222        9.25723009351803
C           19.82072756903256        9.24203395450230        9.54063604652568
H           19.59764158403874        8.18378145357671        9.60799929558010
C           18.78931790867404       10.15987247063071        9.66049365460635
H           17.76767518079509        9.84051547260758        9.82331433191871
C           19.13201568006014       11.50358463530941        9.56900088469668
C           21.57750587895697       14.11960963673073        9.00198659881725
H           22.43808290995489       13.76118621371128        9.57653186197228
H           21.35581716084428       15.13969369459086        9.33381836748191
C           21.91787308319408       14.12851409498060        7.52946286780531
C           21.13101083107598       13.49665323706847        6.57391021586043
H           20.22627609846194       12.97662544440868        6.86677266641147
C           21.50648545626873       13.51635721534147        5.23707403030168
H           20.89523442586763       13.00464387012949        4.50212638194454
C           22.66110074278979       14.17606991914429        4.84329814951775
H           22.95281423688358       14.18661974268303        3.79967539023114
C           23.44115069967461       14.82380436758791        5.79209961464309
H           24.34306371235210       15.34462786851340        5.49146303433246
C           23.07181496856071       14.79974317807498        7.12853309699015
H           23.67841125679621       15.30689063990690        7.87106598202544
C           16.97726293279869       12.77372377350454        9.88491568852167
H           16.81208455699832       13.59061007171396       10.59512186157591
H           16.63056768456595       11.84596197246283       10.35107442043688
C           14.82686452671516       13.18880303504090        8.70599775421405
C           16.19737268766098       13.04534089598976        8.61407593112887
C           16.83671916906961       13.15965869261073        7.36418459535936
H           17.91173019406572       13.04295607859436        7.30318465650335
C           16.11380986056391       13.42109475055987        6.23056148403010
H           16.61619700635788       13.52332307516475        5.27479561225228
C           14.70591788039155       13.53095544146226        6.28100381859464
C           14.04850516455557       13.39174350873247        7.53420644532484
C           12.63476336121035       13.44784116474106        7.57142127624112
H           12.13047394410087       13.32156305540918        8.52281784381106
C           11.91249659418945       13.65614880255061        6.42663241443403
H           10.83002349984976       13.69560219962572        6.46546135634619
C           12.56551328735079       13.82550208620742        5.19148609111742
H           11.97742453608165       13.99424588756132        4.29676218715035
C           13.93228633232061       13.76216946298711        5.11955914450533
H           14.44199657838192       13.87973620361450        4.16923317307530
C           14.22989407336690       16.37972992361518        7.96608862058184
N           13.27330565552090       16.75598773604759        7.10558943736603
N           13.61489907522009       16.07450267007997        9.11867200512095
C           12.02783724870798       16.69958521918822        7.69696461347781
C           10.74989322449710       16.98575858146732        7.23144977929097
H           10.57785377553862       17.33831304737368        6.22262779063125
C            9.70598625422889       16.80106695332484        8.12228663897563
H            8.69226406166871       17.01214023604453        7.80297559942988
C            9.92484905136737       16.34823210336591        9.42843444159007
H            9.07480183309655       16.21854052482819       10.08786023528333
C           11.19583433854865       16.06358554319736        9.89842033607903
H           11.35950405832719       15.71350973294173       10.90904029881887
C           12.24940613773546       16.24806079240553        9.00950703774430
C           13.53147571202109       17.13964690020828        5.72934309493653
H           12.77078853146527       16.68200958233032        5.09052337476146
H           14.50813908285749       16.72448327260350        5.46131503757089
C           13.54798576104493       18.64171808528348        5.56234562377024
C           14.45666010575431       19.41487881313264        6.27797542345953
H           15.13098979701020       18.93864232278509        6.98176925679637
C           14.50463447177600       20.78822395340446        6.09486597735885
H           15.21243107783000       21.38249688866436        6.66101620098648
C           13.63889023737071       21.40120274161122        5.19866079342435
H           13.67766662629996       22.47464827803816        5.05575407173120
C           12.72440845152270       20.63599854035641        4.48994043693021
H           12.04415760738531       21.10943072571427        3.79167437646424
C           12.67834672846479       19.26028964269242        4.67021150383733
H           11.96616939879809       18.66470245601332        4.10927394618559
C           14.32204542078010       15.62566497623311       10.30413617971439
H           14.18032109996119       16.35843415185971       11.10769665946744
H           15.38508417899053       15.62506329987347       10.04415302218958
C           14.16705749651596       13.11104925434404       10.03981359133048
C           13.90702132915266       14.25096438016276       10.77574957125530
C           13.30929420633175       14.14242842088045       12.05094682599027
H           13.10700609582173       15.04944877875312       12.61000217923596
C           13.00429795995354       12.92112912499205       12.58828605316086
H           12.55511886974914       12.85213694692142       13.57259463697525
C           13.28588271661008       11.73351969540435       11.87483362609405
C           13.86251715902966       11.82840564247803       10.57871304326254
C           14.14300435929702       10.63355634669655        9.87147801067428
H           14.56590937049852       10.69882688839487        8.87521554051650
C           13.88323696423520        9.41038670424458       10.43074994360892
H           14.10619913859173        8.50306947484920        9.88128018947199
C           13.32141736858435        9.31860409405782       11.71719288315373
H           13.12063378715567        8.34217179328929       12.14232194047338
C           13.02291386906049       10.45491076542087       12.42134910585161
H           12.58090115090592       10.39230230795347       13.40962683140437
C           20.19972396115564       16.83010619250314        5.18092021703437
N           19.97193919992149       16.27844729837842        3.97714026341351
N           21.35708778007553       17.50055568083943        5.09180303489296
C           20.99644958863535       16.58149215722465        3.10128451560805
C           21.22269231032131       16.25554729456461        1.76907196670954
H           20.51459929242012       15.66936490626843        1.19746593346660
C           22.39814863538314       16.72004374008326        1.20327538594071
H           22.61414536786803       16.49178720537415        0.16628020995367
C           23.32016810966799       17.47351311313412        1.93842451606153
H           24.23130627182541       17.80555629985482        1.45502383286485
C           23.09715746347177       17.80635229010840        3.26395449889019
H           23.81395307335067       18.38806733535277        3.82814569041026
C           21.90970619929767       17.35865016673233        3.83368309229830
C           18.92441718539238       15.30288122165461        3.73320676951405
H           19.28476370760181       14.59766951884407        2.97894556899600
H           18.77864798711879       14.75332320576122        4.67039987797822
C           17.59837964928617       15.89046332641509        3.30765903021215
C           17.20777080363092       17.17276171661214        3.66987878702725
H           17.88793651694762       17.81151863115498        4.21907101346029
C           15.95113682251876       17.64547181182411        3.31720608202777
H           15.65365986730989       18.64702859656256        3.60422049440118
C           15.07711774877237       16.84292937102792        2.59817559318473
H           14.09850065678453       17.21753593715241        2.32127217214509
C           15.46479047684415       15.56147461638033        2.23016181310139
H           14.79224519563456       14.93143198549389        1.65983340945730
C           16.71908935138529       15.08673765683903        2.58511435648337
H           17.01802244464415       14.08465868882707        2.29695907094406
C           22.01405955530516       18.07212383104939        6.25787518734802
H           22.75763193652780       17.35264066697625        6.61697623206357
H           21.25055078785023       18.15307615550795        7.03675933576978
C           21.97126646204102       20.52338691161638        5.62396885423207
C           22.67663183725155       19.40705943087266        6.02416526960122
C           24.05991504724658       19.50802061010778        6.29164674878129
H           24.59566378960154       18.62055681869856        6.61096068439721
C           24.71880578443402       20.69971067797321        6.16386127221689
H           25.78082594929327       20.76355430988938        6.37257891064424
C           24.02472065276737       21.86561931711518        5.76792071816069
C           22.63279320713428       21.77879875309544        5.49433871849065
C           21.93971546633327       22.95576124123620        5.11905022503830
H           20.87712077707493       22.89844259845045        4.91173027187743
C           22.59706593004204       24.15294030469548        5.01541627670749
H           22.05587836335461       25.04682620394809        4.72706990211336
C           23.97667827265169       24.23471995306919        5.27813853344939
H           24.48037824418644       25.19000098187836        5.18694956628911
C           24.67516661399014       23.11591502237638        5.64617710215611
C           18.53660232934651       20.58724163671588       16.10139078003441
C           19.91664932665495       20.57967965548595       16.38356026759369
H           20.62426390935763       20.69277566824147       15.57188543245866
C           20.36878156732315       20.45370970976323       17.66877632101227
H           25.73846033171766       23.17170460757498        5.85211136671635
