254
 energy: -410.313977707434 gnorm: 0.000740505894 xtb: 6.5.1 (579679a)
Au          11.91551844781717        4.03468919077727        4.52480552829083
Au           9.13392248893737        3.13164383592381        3.36257492494061
Au           7.33691063959212        3.95095279514680        1.15676790399504
Au           6.69852709956046        6.55610706881799        2.62488915364967
Au           7.63260602824412        8.22061181302157        4.84131915681705
Au          10.21677930962481        9.01123731336530        3.17497289458010
Au          11.68305470024224        8.24129753206740        0.75186396308106
Au          12.49871759266651        5.60058195980976        2.13499357290076
Au           9.50196596740679        6.13739756972081        1.15229048708155
Au           9.71398412402778        6.09392227484031        4.49163148498261
C           11.43083340202972        0.97535785351938        3.28392422367509
C            7.91103362553155       11.28127645485073        3.29252058297476
C           13.06901662827086        0.56427493002389        5.44774825096541
C           11.14269779556492        8.96771948149821        6.66248362512336
C            8.30597831166087        2.87653904367703        6.82698607453744
C           12.32219857935056        1.36509090725864        2.28007444643751
H           13.12631418572315        2.05416147001529        2.52366073568006
C            4.40636456332570        8.40925549641187        0.77384771572358
C           12.99996128199545       11.47529268541802        6.26718762962578
H           12.78444905937488       11.02112608243645        7.22761061940457
C           14.85360598945761        9.25421315866242       -0.53586291296508
C           12.22295727340319       11.15524348432001        5.15100437779977
C           14.83808287320702        7.93582867846608        2.03225438314815
C           14.34026644484141        1.05697151716403        5.73953678090302
H           14.51645337465897        2.12746857791184        5.72531364932896
C            8.92680673932460       12.09454377837747        2.79147560809181
H            9.74720552344162       12.38184784116586        3.43808842987545
C            9.56564968328582       11.91664915728402        6.77476326268733
H           10.47932570862205       11.67878508135400        7.32861059301659
H            8.71942693576915       11.77434995813220        7.45152264712675
C            9.12451252388462        3.92713202274104        7.25184488792238
H           10.05861858552300        4.11845600027529        6.73753091569732
C            7.62077705422151        0.57861098007777        5.23549571364569
C           11.23947444585575        1.75471041040631        7.95311290945074
C            6.36002725036703        7.07771733131270       -0.92604589526285
C            9.63444576903541       13.35172621585937        6.31285817643517
C           15.13060062819495        3.25836945486897        1.06800702026810
H           15.01069198267601        3.82628028999694        1.98445686635173
C           10.45264564045539        0.73155171878156        7.18832697352557
H           10.99239332263768       -0.22217464164771        7.21166949673754
H            9.46929019395610        0.57686374443464        7.63771643031647
C           12.34889392043016        8.26167129666957        6.72154212087483
H           13.07686974570513        8.37633258539952        5.92576499801723
C           12.19810979106791        0.89041588409143        0.98498523614858
H           12.90941481046138        1.19449107225723        0.22560363540872
C           10.41116117370362        0.08480212043775        2.94664205480521
H            9.71773910822230       -0.25528058550775        3.70567371306235
C           11.16233838722823        0.02316215443928        0.66145929100310
H           11.05462332234534       -0.33983728731035       -0.35397081070835
C           12.61353841227671        7.40612445017627        7.77831750295501
H           13.55285221974408        6.86557212605642        7.81034024343185
C           10.19734379048430        8.76970224051609        7.66947985613595
H            9.24428365013849        9.28429200847588        7.62645717646825
C            7.10360058136912        2.65120407255277        7.50060049950237
H            6.44873690448059        1.84642957762986        7.18744480329932
C            6.73922695020179       11.56123119914389        5.88476560597264
C           12.23668578488628        4.96665888742808       -1.37302748065522
C           13.89434433874488       -1.68091853143776        5.76330614996753
H           13.71917777198050       -2.75054586650610        5.76673466157627
C           12.54162075787102       11.73465854127110        3.91920468687857
H           11.95308612044984       11.48239430302420        3.04390404256445
C            6.84942065248696       10.92755202069557        2.45403483986646
H            6.05883697198224       10.28589323018785        2.83173127576822
C            6.94456916479635       -1.73643620491625        5.35795659813961
H            7.18169323862343       -2.76742682154118        5.59374445431807
C            7.82468864716178       12.18888634314629        0.65600950780012
H            7.79323336398411       12.53627405774187       -0.37007909592507
C           14.61003332467971        9.00758076127055        2.90079756514237
H           14.01630742543950        9.85192286531938        2.56450481606211
C            9.01308321076916       14.36154366623501        7.03889822906958
H            8.43969721524083       14.12222589888444        7.92685062393851
C           10.27140878997157       -0.37834697980777        1.64558220923507
H            9.46368419416999       -1.05989851900909        1.40389586235824
C            7.90835255054597       -0.75449449054057        5.53316606240067
H            8.88939266926536       -1.03233090787732        5.89876115744196
C            8.76072007605346        4.72086796800134        8.32500112073091
H            9.41257369849310        5.52782824692186        8.63831659643411
C           14.05446764633590       12.36882133587159        6.15323364947648
H           14.64753725809068       12.61187656185543        7.02721070109260
C            7.15074207555653        8.21546847477909       -1.11268828979226
H            7.17018305114051        8.99118259622115       -0.35434290327295
C           12.85862965695952       -0.81638876194532        5.44509995399916
H           11.88491514815982       -1.21504587600061        5.18172821288359
C           11.42535518880728        3.82820830049418       -1.43055552510469
H           11.53279331645509        3.05360547838709       -0.67883499870624
C            6.80301572555405       11.38572873454515        1.14785871687528
H            5.96983721996818       11.11475545475013        0.50960134480235
C            5.48169512160804        2.66974257628737       -1.56681255162288
H            6.52245800073465        2.83690841654297       -1.31025615579306
C           15.58294530699763        6.84823021459101        2.48797610852357
H           15.76967206973364        6.01178198417717        1.82566901951552
C            4.13024141567254        9.25781914085994       -0.29951575020254
H            4.51620492574573        9.02389562749957       -1.28380010770217
C           15.15400431734363       -1.18027664441080        6.06522441614131
H           15.96312861286862       -1.85881643905549        6.30861629039116
C            6.06492540508647       10.98755788619349        6.96588940316027
H            6.25879123179148        9.95241401050015        7.22736513166234
C           14.45731407440980        3.66516858147651       -0.08814577521397
C           13.59298178014249       12.62962222285571        3.80846638031377
H           13.82323489963785       13.07534185641345        2.84763372280362
C           15.13160622779041        8.99930984697177        4.18428163516398
H           14.96157426907618        9.84414786574654        4.84186277233429
C            6.46953167944223       12.88893934479518        5.54097011362528
H            6.97947240054029       13.34157895378427        4.69827091686528
C            3.90396340489735        8.73585347787130        2.03825043383338
H            4.13026346099312        8.09451881276070        2.88365249753626
C            2.85127663972783       10.69997775167073        1.14193399440621
H            2.24791522480799       11.58895131831877        1.28316702516166
C            5.68522942781952       -1.40253816103785        4.88096632508853
H            4.93375534482865       -2.17113303396743        4.74406258590647
C            7.56294949652839        4.48706115205474        8.98788431051588
H            7.27373503168125        5.11227496347732        9.82451553214363
C            3.35666672314891       10.39407394103868       -0.11438997689865
H            3.14738587137063       11.04258902503723       -0.95711763192191
C           16.03383037205631       11.26649237205733       -2.06786927352286
H           16.49503029383942       12.04542393531025       -2.66348853270101
C           14.29503506044946        9.63778754554389       -1.76068151670333
H           13.38957231374648        9.15267380233635       -2.11059334537776
C            2.94662682857403        5.79893401269502        0.49607522755084
H            2.64077039502210        6.66243798756873        1.09663978345288
H            2.41187901846284        4.92734514771947        0.87943738643877
C            4.48314527899824        3.09542563431667       -0.68483904782479
C           10.47007737235898        7.92417637095840        8.73444543496523
H            9.73836281052693        7.80441436985079        9.52513399218405
C           15.37768359017807        0.18948948537595        6.04581839560584
H           16.36192498882309        0.58441682196357        6.27004294324776
C           14.35062104714100       12.94977924786573        4.92763029876796
H           15.17464466727650       13.64846316475870        4.84340063479896
C           11.67872222142297        7.24296524586453        8.79225918490298
H           11.89046487487682        6.58361177234560        9.62617445931422
C            6.35324318188860        0.90207671815150        4.73902034370005
H            6.12677601053693        1.93207420417006        4.47899677829095
C           15.86985358972312        7.90861842319653        4.62729236412834
H           16.26827401854512        7.89739479584938        5.63506369117206
C           16.09376905307660        6.83494697445746        3.77735169861006
H           16.66790493238406        5.98077593848131        4.11766048113282
C           14.88676707095333       10.62989211310361       -2.52465906116199
H           14.44877927980350       10.91188044555556       -3.47504690815602
C           12.83910534666434        3.39892828317231        7.76550036386074
H           13.49512169710969        3.95467245312865        7.10439592452637
C           15.99785606667154        9.91269379756443       -0.07918883646649
H           16.42881039905116        9.64945232395976        0.87979396021482
C            7.15745682573163        6.21271894528526       -3.03202520055065
H            7.15554643622224        5.42876233017961       -3.78074539112739
C            7.92154997378413        8.35499498357291       -2.25587845923628
H            8.52525890870040        9.24513502171019       -2.39039554579014
C            6.38728981414514        6.07072619020438       -1.88913765364706
H            5.77332498360402        5.18899639848048       -1.75616250509868
C            8.88335217432462       12.54313747943417        1.47993369988450
H            9.68173293284763       13.17140171817409        1.10185322285516
C            9.13830818385057       15.67264997387391        6.60598914740068
H            8.66189724906144       16.48017493655615        7.14976852504908
C            5.16137856368218        2.03286592669684       -2.75483146637851
H            5.95132071954746        1.71261181664957       -3.42428004207950
C           16.58264222450909       10.91081903710063       -0.84374254245874
H           17.47161741600151       11.41256937647086       -0.47953090921265
C           14.60216836618549        2.90904543096321       -1.25444592096725
H           14.08614091453400        3.20588908434445       -2.15974173974140
C           11.14005044002299        1.94322484443402        9.32454391748104
H           10.45129133767768        1.34538949930344        9.90847394025034
C           15.36390941458325        6.36038687513158       -1.46731797799565
H           15.48856613525515        7.34521165297142       -1.92302061291375
H           14.95533842070194        5.67759580714583       -2.21651467196312
C            6.73752451198950        3.45196722252090        8.57245057864147
H            5.80092928954009        3.26448195960673        9.08492025817476
C            5.39244470081236       -0.08107871716623        4.57048624348339
H            4.41348151036870        0.18386438562114        4.18874995532024
C           10.47337623708919        3.69164569151416       -2.42710210788554
H            9.85179592615472        2.80414589530807       -2.45933515172476
C           15.94507232151386        2.13802062467937        1.05453678598096
H           16.46536433281258        1.83882695041681        1.95719940466854
C           11.93416190436055        2.90958331739009        9.92077991428055
H           11.87912880286942        3.08541725029458       10.98855756489890
C            7.92172425787997        7.35693417435702       -3.22043827433424
H            8.51697265088672        7.47060796480815       -4.11886499024308
C           16.08406142393120        1.39631042214710       -0.11160141685636
H           16.71482803258404        0.51520793531981       -0.12166995703600
C           15.40941846510173        1.78187560356316       -1.26220768023969
H           15.51474839492482        1.20461831868697       -2.17326266746490
C           12.80063449344220        3.64879045155975        9.12505368722980
H           13.44081042625428        4.40791745725244        9.55605493753847
C            3.83188848365788        1.80740481223912       -3.08278258064628
H            3.57698432090338        1.31319349351870       -4.01281336868448
C            4.89862017946803       13.05142856030396        7.35513739974671
H            4.18335378793811       13.63171072415720        7.92615551003269
C           12.04707384483179        5.97802993407696       -2.31543660428716
H           12.64788851838667        6.87922314228860       -2.27051214727594
C            3.12577440890563        9.86773201228544        2.21960804202334
H            2.73915597550638       10.10411846158878        3.20423005396438
C            5.15271993978105       11.73038483239601        7.69885111047197
H            4.63659679806143       11.27661528242412        8.53693602109798
C            3.98821446527627        3.31680426329399        2.16873209198144
C            3.91250126583770        4.05669553536908        3.35385130561050
H            4.42061580264505        5.01340909769311        3.41808914363820
C            3.19326157413664        3.58659204736499        4.43900142865478
H            3.14274607263742        4.17464922410778        5.34816193570178
C            2.53383278923452        2.36646134587186        4.35766426379579
H            1.95923606771137        2.00219012295443        5.20108197365351
C            2.61854103092572        1.61173137930161        3.19517896390853
H            2.10433018334643        0.66009738942540        3.12615442566344
C            3.35300006762593        2.07469374012901        2.11208075555938
H            3.42580742658432        1.46779085021568        1.21706505796189
C           17.51407625893613        6.54341460223544       -0.12758275336727
H           17.22127695352390        7.52772339267000        0.21644426393056
C           10.47083283851695       14.85714915470781        4.80307839691233
H           11.06448080699809       15.01035190265307        3.90667273650466
C            9.88624887452864       15.92505722004142        5.46517247311311
H           10.01239631109283       16.93466265268590        5.09478613616058
C            5.55580408259156       13.62753151854689        6.27554678824232
H            5.35489813024951       14.65713494587645        6.00298332286291
C           10.31504658912574        4.69114859081824       -3.37783196664227
H            9.57746172298223        4.58011170831964       -4.16399586022682
C           11.09849317405663        5.83531109313376       -3.31636354890602
H           10.97187585673461        6.62208081123986       -4.05115087673712
C           16.69303907795807        5.82897040434989       -0.99166836039729
C            3.14869419172261        2.84350262980114       -1.02050551429128
H            2.35083648775420        3.14030723762418       -0.35062225711349
C            2.82914379993952        2.20938611948181       -2.21055968580864
H            1.78938757816941        2.02696631201654       -2.45640350066062
C           19.05577922454493        4.72683600724148       -0.21220923314409
H           19.98525934201771        4.25184632164566        0.07600155461680
C           18.18570152785208        4.09400635207021       -1.08724890808978
H           18.41768228101834        3.11665558432140       -1.49935041437295
C            2.61785518813629        6.05295774556467       -0.95060794654231
C            1.39698762625599        5.69165226815633       -1.50637955283769
H            0.64177751019475        5.20653239343844       -0.89949340071070
C            1.17005404441070        5.96162694264075       -2.84707857029507
H            0.23054423013754        5.68779450775339       -3.31284389158874
C            2.17235316830945        6.58368420859254       -3.57819009011801
H            2.03727162488270        6.80599632805953       -4.62923775214107
C            3.35452084151675        6.91943682200920       -2.93887750108734
H            4.16332677402007        7.40753087283474       -3.47463374734788
N            3.56982037858675        6.66211636383741       -1.65016646454797
C           18.71595166981612        5.98055000693117        0.27423272380975
H           19.37481790419508        6.51375574813551        0.95014122674393
N           10.29683489988284        1.14008146148147        5.78398758048705
N           12.06937740221658        2.46961930289072        7.20116494864932
N            4.39555545452134        5.59154667945687        0.68032880377628
N            9.45993419050264       10.97603559847816        5.63778249078209
N           10.34534500157149       13.59833829185095        5.21567626500546
N           14.39570269895106        6.47677745674443       -0.34534938993450
N           17.02988203849172        4.63182209735677       -1.46399748662098
P           11.74733257927082        1.72299428881860        4.95087319530752
P            8.81759968657628        1.94133570486267        5.34620119304324
P            5.02111944022939        3.97291378427514        0.81840002829185
P            5.48403185283371        6.95217123156937        0.66323202809570
P            7.91403780549136       10.53672071446503        4.95203092883055
P           10.82044289894817       10.00001707972346        5.19577939107668
P           13.98174666217006        7.98411544500373        0.42597047804491
P           13.37665362219060        5.11895316423890        0.03534067886333
S           12.07056591712842        6.36416536299231        4.31889863797262
S            9.66651869837578        3.77946574653614        1.17194518670802
S            7.37246960288728        5.89996116336839        4.78743328383577
S            9.38386441897394        8.49592888713458        1.03760180266848
