258
 energy: -408.227737998853 gnorm: 0.000639799519 xtb: 6.5.1 (579679a)
Au          16.82857969144670       18.07873509708377       20.58030706443258
Au          19.06850675702085       16.48928864947037       19.03580273374020
S           17.71312969966906       17.84210404569801       22.74355620109889
P           15.69280680548264       17.85471255819624       18.55904820017240
P           17.11883145388558       15.22220125592897       18.83949622146118
C           14.81348162751156       15.53436834624846       17.34604285940615
C           13.93053603061246       14.61673848962011       17.90285931694501
H           13.98830104707785       14.37519035948990       18.95705687745096
C           12.97559907354230       14.00588249922025       17.10497603953306
H           12.29410914764847       13.28825621624489       17.54815509436538
C           12.88355316928412       14.30310346067849       15.74719042314969
C           13.77334715282550       15.22588730303089       15.20269495122271
H           13.72191566078800       15.46755815004008       14.14685360417498
C           14.73612016111029       15.83712493996963       15.99167660437633
H           15.42911048194098       16.54111343183379       15.54855324787364
C           13.90016079709918       18.13853695402595       18.54211674713335
C           13.22022236273736       18.10020308982753       19.76237046810231
H           13.77604515014791       17.92922846498209       20.67815013481206
C           11.84758280139947       18.28445397821128       19.81272028313818
H           11.33328388812831       18.24943741343318       20.76613538564310
C           11.13661586109641       18.51648234044215       18.64260360231688
H           10.06348538217914       18.66210660413859       18.68007648120113
C           11.80283228636852       18.56517401336494       17.42504579223912
H           11.25066331027934       18.74825602583267       16.51064018097732
C           13.17532678448629       18.37948004915005       17.37185587144716
H           13.68730397243042       18.41938277841659       16.41759067586209
C           16.32315625955086       18.74737006226381       17.10662863065679
C           17.26027314018982       18.18842959230423       16.23628805872746
H           17.57055131022386       17.15806757159968       16.36845615928051
C           17.78998438657968       18.93906427201528       15.19884848608832
H           18.50006906269143       18.48488661440167       14.51774993985212
C           17.41194639167407       20.26483032435172       15.03316960584635
H           17.82418723270438       20.84918150824695       14.21881336647429
C           16.51043762564340       20.84272273817999       15.91677235520828
H           16.22686480244435       21.88277436046512       15.80416114605095
C           15.97347749858184       20.09249455881453       16.95073969981586
H           15.28199942434476       20.55235663675871       17.64865385066777
C           17.08147998733689       13.75008631524904       17.78008634624511
C           16.47502141941801       12.54974651814491       18.15612530370460
H           16.01115440539171       12.45959123004085       19.13155127218377
C           16.45942397824320       11.47330254108473       17.28265250120017
H           15.98320266539828       10.54694201447592       17.58213885099987
C           17.04613908618594       11.58149340420174       16.02931493867187
H           17.02786770903559       10.73924115251844       15.34774060954194
C           17.66099704679321       12.76798204408694       15.65047252000864
H           18.12499241110941       12.85395269522733       14.67479986723273
C           17.68501367950820       13.84369422716327       16.52245583177954
H           18.17024942307115       14.76912976123662       16.22917008695704
C           16.56922601139848       14.66066273675063       20.48214495722379
C           15.42330996909500       15.12866627955856       21.12500756002477
H           14.73731652058634       15.77809405492848       20.59532515020222
C           15.15179849398154       14.76547098277477       22.43580176737832
H           14.25762373437582       15.13884152456119       22.92143928672077
C           16.02141493501763       13.93000379558241       23.12207765100689
H           15.80820303569678       13.64493136703094       24.14557165165485
C           17.16778254694991       13.45877268823660       22.49367669852191
H           17.84740585630981       12.80126853439883       23.02349921446682
C           17.44516697750558       13.82977507269404       21.18790827839625
H           18.35039609757207       13.47394638686604       20.70591444464952
N           15.81369213260502       16.16376686015331       18.17288891192532
C           11.83347484818703       13.65512165170251       14.89092896638963
H           12.17222719500334       13.57015306650693       13.85867870473722
H           10.92412642633167       14.25998985338785       14.90090266504274
H           11.58420808959143       12.66286728793899       15.26614469143848
Au          19.44888256857424       19.44919153305663       22.68821878022406
Au          22.06991763925102       20.82091709879843       20.58021859915949
Au          19.82949271588605       22.40884899632633       19.03590269010089
S           21.18506078454460       21.05539507490550       22.74384638937964
P           23.20527451594564       21.04327225524409       18.55907887761641
P           21.77908176727316       23.67572128839742       18.83946354171514
C           24.08450905538154       23.36361505780002       17.34604699607419
C           24.96750405696023       24.28118370874688       17.90287486783859
H           24.90978624495364       24.52268706256067       18.95708486325440
C           25.92243581695379       24.89205217309626       17.10498737739679
H           26.60397003105150       25.60962665301049       17.54818271188084
C           26.01442143147850       24.59490158254444       15.74718639451943
C           25.12458915439508       23.67214954762731       15.20268413653817
H           25.17600274698269       23.43051227644404       14.14683319277489
C           24.16182834525700       23.06090189609768       15.99166670692928
H           23.46881686427665       22.35694980011242       15.54851960659617
C           24.99791233077340       20.75952179730161       18.54219596365574
C           25.67782830557610       20.79783190623753       19.76245799102897
H           25.12198040762362       20.96876225927452       20.67823238155524
C           27.05046989402405       20.61362637463089       19.81280243368025
H           27.56475936978275       20.64863311191526       20.76622262756435
C           27.76144490024735       20.38166170043803       18.64267910874510
H           28.83457761527246       20.23607362618894       18.68015264588982
C           27.09523961259852       20.33298570833641       17.42511444030632
H           27.64740226764337       20.14995226099404       16.51069702533076
C           25.72274795059931       20.51864303432641       17.37192829368375
H           25.21074967831258       20.47875654596963       16.41767268826228
C           22.57490718970934       20.15059783675937       17.10668841318018
C           21.63775864105889       20.70949930980313       16.23635475434902
H           21.32748087077426       21.73986575786746       16.36848665794182
C           21.10804993430808       19.95882587514804       15.19894418081019
H           20.39788688915724       20.41295304758074       14.51789439818308
C           21.48612448542607       18.63306831315234       15.03328652472193
H           21.07380255106154       18.04865477381590       14.21901667820550
C           22.38771756830339       18.05523765608610       15.91684432125524
H           22.67133798098653       17.01519822811277       15.80424812311812
C           22.92467377854765       18.80550113045335       16.95078502303509
H           23.61626573912541       18.34571432702678       17.64863718786303
C           21.81643777667331       25.14784477591008       17.78003915315469
C           22.42299205797289       26.34817437459416       18.15598611459950
H           22.88694166165975       26.43835294141650       19.13137085968552
C           22.43858509469857       27.42458301228599       17.28246350523025
H           22.91488400242589       28.35092945367505       17.58187529836401
C           21.85176713864971       27.31637866744444       16.02917706555434
H           21.87002512195805       28.15860581585174       15.34757104818012
C           21.23682828220888       26.12990637961825       15.65042232312094
H           20.77275306613913       26.04391329504755       14.67478952007410
C           21.21282571772077       25.05422464575016       16.52244483354029
H           20.72751968843464       24.12880448060903       16.22922998430631
C           22.32860727312241       24.23719017012039       20.48215839967010
C           23.47452068731673       23.76921839716801       21.12505528535788
H           24.16050783008065       23.11974131143386       20.59542637891535
C           23.74609646157887       24.13260123661101       22.43578710536961
H           24.64025674021411       23.75924536974086       22.92146357602210
C           22.87653032501238       24.96818697405023       23.12198661187244
H           23.08976137037343       25.25335442091319       24.14545128550569
C           21.73016464153931       25.43938289527571       22.49355881440079
H           21.05054368609199       26.09692296166731       23.02334118139902
C           21.45274421520354       25.06824351563373       21.18783518493249
H           20.54753615005474       25.42408265088978       20.70580958205217
N           23.08430180792293       22.73420803021197       18.17291123269637
C           27.06446040148567       25.24288288260845       14.89087889575446
H           26.72513852171114       25.32900320192573       13.85890847656667
H           27.97337263120514       24.63734181101354       14.89974414283302
H           27.31466922310868       26.23462570112475       15.26681318687442
Au          20.82252551155960       16.82827689949625       21.33593058370219
Au          22.40880076040833       19.06829567118083       22.87965334607284
S           21.05582010161708       17.71334289747927       19.17233460304799
P           21.04322271889151       15.69272417839641       23.35702905868596
P           23.67567450475989       17.11892191816750       23.07656406725297
C           23.36363051425888       14.81347881679331       24.56996403548404
C           24.28125558081114       13.93054113596904       24.01313031091765
H           24.52278365789674       13.98829702873234       22.95892826468527
C           24.89213194519274       12.97560138753413       24.81100238395117
H           25.60975690324904       12.29411818564160       24.36780930278514
C           24.59494114884364       12.88354558664037       26.16879261908268
C           23.67215614910170       13.77333365452220       26.71330354033564
H           23.43050510754794       13.72189396420003       27.76915002337507
C           23.06090102663716       14.73610586451587       25.92433723321489
H           22.35691356686027       15.42908079792904       26.36748424820247
C           20.75947679375107       13.90008981098514       23.37387765532395
C           20.79780115221455       13.22018513123292       22.15360952886710
H           20.96874887454917       13.77603626416087       21.23783956125966
C           20.61358380164037       11.84754629739909       22.10325508647250
H           20.64860505721340       11.33325720975888       21.14983523958098
C           20.38159110626118       11.13657263523992       23.27337336790810
H           20.23599641241558       10.06344120406531       23.23589730601342
C           20.33290590831417       11.80277178104993       24.49094128533868
H           20.14985296433867       11.25060746655537       25.40535289472762
C           20.51858284161184       13.17525834055683       24.54413802980478
H           20.47868138164961       13.68725625854697       25.49839281510350
C           20.15060957130957       16.32310290078787       24.80944580405126
C           20.70955206592033       17.26021877692224       25.67978037491539
H           21.73993311554161       17.57045404106051       25.54765748103744
C           19.95890036424630       17.78994208156382       26.71719597127162
H           20.41306229432592       18.50005483712609       27.39827412330250
C           18.63312526324925       17.41192019549054       26.88283921876663
H           18.04873697284113       17.82422820525945       27.69713306116083
C           18.05525556741276       16.51037042392473       25.99926255266947
H           17.01520169877685       16.22680035763738       26.11184436522239
C           18.80550002188824       15.97339833508629       24.96531935283737
H           18.34567728547974       15.28187747762323       24.26742111857715
C           25.14783540103071       17.08158990997522       24.13593553930751
C           26.34817755560435       16.47509201013239       23.75991570099408
H           26.43832810003247       16.01117096095071       22.78451426691034
C           27.42461097919070       16.45946688242420       24.63340818908906
H           28.35096491281483       15.98321894673634       24.33393618827115
C           27.31642535039477       17.04620524878883       25.88673273264948
H           28.15867902409087       17.02794744195825       26.56830568800347
C           26.12994899970372       17.66109615888633       26.26555514705948
H           26.04398064652202       18.12512833188896       27.24121005273069
C           25.05424001431346       17.68512238661073       25.39356986693021
H           24.12881642249996       18.17038896161979       25.68683533027611
C           24.23698366575275       16.56946480959733       21.43379704568716
C           23.76902694229850       15.42353422376544       20.79091880027902
H           23.11962272259835       14.73751560244346       21.32059734584330
C           24.13252557628310       15.15187365864228       19.48023120862804
H           23.75915187579587       14.25771688585396       18.99456112439191
C           24.96812305679378       16.02142401819562       18.79402160274228
H           25.25320749278260       15.80823491417177       17.77052403767860
C           25.43933354135473       17.16778915430102       19.42243945656379
H           26.09683095010196       17.84743494746060       18.89263283560053
C           25.06817085839235       17.44524248217911       20.72815093973872
H           25.42407984632357       18.35041931740133       21.21018470100898
N           22.73417844679873       15.81369947798484       23.74313502829722
C           25.24295519735473       11.83348571000705       27.02505210649635
H           25.32832118100769       12.17241583972440       28.05721262872055
H           24.63787996158592       10.92427111580798       27.01545022579210
H           26.23503768926570       11.58392385352665       26.64957899834072
Au          19.44903119221711       19.44885188218225       19.22764712318483
Au          18.07421241481247       22.06993225019866       21.33563007750990
Au          16.48950354406824       19.82964742912654       22.87972022647292
S           17.84235569597629       21.18428485065085       19.17233092213219
P           17.85476601129216       23.20525613914602       23.35699878216596
P           15.22228479993952       21.77908210972118       23.07651714744046
C           15.53438385132271       24.08444535198731       24.57001223783178
C           14.61673753917696       24.96741541978880       24.01325528125394
H           14.37517440793373       24.90971079383364       22.95905881063157
C           14.00585608950120       25.92228803359331       24.81120448659237
H           13.28821275886603       26.60379368661350       24.36807620860654
C           14.30306944300764       26.01425489398828       26.16899557826921
C           15.22588634100205       25.12445241611732       26.71342594447302
H           15.46757022687772       25.17584236783872       27.76926723358519
C           15.83714452188352       24.16174193583882       25.92438388653132
H           16.54115302978743       23.46875128847617       26.36747360947858
C           18.13848031225897       24.99790530164409       23.37383966766125
C           18.10017226537155       25.67782763125525       22.15357604223803
H           17.92925621916720       25.12198418300877       21.23779269697977
C           18.28435462309619       27.05048103678362       22.10324383767365
H           18.24935721100978       27.56478484405036       21.14983002324224
C           18.51629602469614       27.76145149378106       23.27337756404521
H           18.66188381828319       28.83458652252467       23.23591986455780
C           18.56495639354160       27.09523457412952       24.49093705827653
H           18.74797628791460       27.64739417343242       25.40535926737337
C           18.37931261174488       25.72273991434044       24.54411086379319
H           18.41919283333339       25.21074071539253       25.49836481069013
C           18.74740578068104       22.57495563185719       24.80940415985014
C           18.18854114736278       21.63772936176526       25.67965411001579
H           17.15819555207579       21.32739030531168       25.54747537369318
C           18.93924179477856       21.10798923179659       26.71701782769253
H           18.48511675339100       20.39784030046413       27.39808049443636
C           20.26498544351141       21.48611621355675       26.88268205599813
H           20.84938385980720       21.07386818896450       27.69699507569925
C           20.84279437151674       22.38773153505369       25.99913234929760
H           21.88282315529882       22.67138620077061       26.11172380034021
C           20.09250211017906       22.92470360494777       24.96523092745462
H           20.55228109987553       23.61623259249260       24.26730914408977
C           13.75010557262984       21.81646740893236       24.13585782911791
C           12.54975380616457       22.42289425390354       23.75977836457399
H           12.45960379280222       22.88675175043782       22.78434745160154
C           11.47328275815693       22.43846208259147       24.63322504053612
H           10.54691386748989       22.91465861084994       24.33372081043684
C           11.58145805974835       21.85175702641499       25.88656737503044
H           10.73918533570256       21.87000328296795       26.56811815290872
C           12.76795897902326       21.23695520601574       26.26545754563261
H           12.85392258693465       20.77298326576919       27.24114120534770
C           13.84369834118896       21.21297170455090       25.39350847722484
H           14.76914432228963       20.72777343111018       25.68681716128794
C           14.66112929780454       22.32856837370188       21.43371884487525
C           15.12909228671505       23.47454134291109       20.79094140129702
H           15.77849566170041       24.16051471011450       21.32067959262231
C           14.76561503379542       23.74628321268417       19.48026419947584
H           15.13894231468986       24.64049804117687       18.99466716681950
C           13.93009221413131       22.87673128027418       18.79395805400369
H           13.64500194488062       23.08999955402853       17.77047771997540
C           13.45889309929723       21.73031063943507       19.42228021170403
H           12.80142863408556       21.05068860044577       18.89240168093513
C           13.83000063822022       21.45280264824184       20.72799580813978
H           13.47413342225624       20.54756831420538       21.20995451840622
N           16.16381412656113       23.08426615764579       23.74312026854636
C           13.65506273560816       27.06425013971692       27.02534214007800
H           13.56970727667533       26.72523398514912       28.05747535062746
H           14.26013150239093       27.97347028206337       27.01581339342608
H           12.66297608377246       27.31383726028695       26.64989733057207
