246
 energy: -410.270863363313 gnorm: 0.000433346857 xtb: 6.5.1 (579679a)
Au           2.61824319688146        1.37807161116661        0.37895290996505
Au           0.37635044852042        2.96519623472572        1.91769224659603
Au          -0.00008095381694       -0.00027332355174        1.72929353163761
S            1.73478332280457        1.60684190506886       -1.78550948826859
P            3.75217794635535        1.60580355510688        2.40090817485396
P            2.32200192713976        4.23924364462459        2.11137133992102
Cl           7.74839247183620        5.91856367626343        6.14974591525452
C            4.62882784306684        3.93247585533973        3.60231379241541
C            5.49027521332359        4.87097287459916        3.04354507592095
H            5.41257073484364        5.12551372418820        1.99393563679400
C            6.45078229771516        5.48624474798985        3.83013651153691
H            7.12092075841438        6.21876953975838        3.39744013612519
C            6.55774095444326        5.16093493440799        5.17766118318863
C            5.69758681287157        4.22310912807752        5.73720307863641
H            5.78000530918175        3.97534524959322        6.78827370267311
C            4.73201527247712        3.61249902104981        4.95220165971738
H            4.05651723200034        2.89267411811630        5.39648834480866
C            5.54453876810113        1.32145262882595        2.41780610526074
C            6.22557492941490        1.36818686647427        1.19822104710211
H            5.67100127702981        1.54831850429736        0.28344742051265
C            7.59764572054995        1.18026976019799        1.14719853915527
H            8.11257801752697        1.22236431914700        0.19443146032266
C            8.30720643978909        0.93508644554274        2.31550444478225
H            9.37980432498600        0.78614816241651        2.27734830606655
C            7.64000250763926        0.87692068722717        3.53210626776474
H            8.19067494919988        0.68299108479833        4.44512674927149
C            6.26811474201329        1.06677948122358        3.58612586662131
H            5.75552920965832        1.01824421554353        4.53965075851849
C            3.12141771185328        0.71649769197618        3.85469672198714
C            2.19070953271782        1.27848286229247        4.73008952367179
H            1.88425822638667        2.31036155540094        4.60064831893439
C            1.66272183108122        0.52864996953572        5.76907479204232
H            0.95728072199362        0.98462808438147        6.45380059811483
C            2.03666988794011       -0.79862142633034        5.93184516329599
H            1.62627398792690       -1.38198956553109        6.74778547226954
C            2.93179634732693       -1.37923435866397        5.04354460175485
H            3.21218722400375       -2.42034288287274        5.15399671639354
C            3.46658018973404       -0.63025504573726        4.00763941179262
H            4.15300142171536       -1.09201163954522        3.30597056592960
C            2.35407183661279        5.71317334411551        3.16813832258674
C            2.93688050449739        6.92244973907934        2.78287162989063
H            3.38700928404736        7.01854134161969        1.80157803995392
C            2.94625762481144        8.00051389330512        3.65454858425403
H            3.40418732395006        8.93362248117569        3.34767778843163
C            2.37671598284035        7.88542132578411        4.91513852546803
H            2.38975444239099        8.72908895536077        5.59501580910870
C            1.78542693620860        6.68997732179158        5.30340906693068
H            1.33474119778322        6.59834511916742        6.28476264911466
C            1.76745502792453        5.61253329194020        4.43351168655007
H            1.30030152817746        4.68020798448806        4.73430619085420
C            2.87405195577640        4.79492578705152        0.46772521219629
C            4.02253245454129        4.32605031823941       -0.17017111225463
H            4.70805853811334        3.67971236955035        0.36387338222874
C            4.29722121118075        4.68428215738744       -1.48164965370115
H            5.19322079676435        4.31009426593190       -1.96322470187206
C            3.42842309791656        5.51588375623256       -2.17363256993575
H            3.64422040196275        5.79712729814011       -3.19761704414853
C            2.27965108257378        5.98794466293206       -1.55032334112289
H            1.60083441971622        6.64259843203903       -2.08468943200943
C            1.99878652821538        5.62168938431640       -0.24387783019403
H            1.09147536352888        5.97812455088545        0.23372576596116
N            3.62763713470040        3.29946825616643        2.78457965715604
Au          -2.61808685139299       -1.37785022107232        0.37938410227875
Au          -0.37734243804279       -2.96380730290961        1.91794524108524
S           -1.73545469547110       -1.60699211865624       -1.78550000981180
P           -3.75213100771858       -1.60587590329797        2.40088866127900
P           -2.32196265156505       -4.23937008810801        2.11137115708971
Cl          -7.74823359503271       -5.91862865193790        6.14989249226956
C           -4.62873407415190       -3.93251804898868        3.60237876912843
C           -5.49023982985010       -4.87097276804055        3.04362292816371
H           -5.41258803264733       -5.12548705035661        1.99400398398807
C           -6.45072709476050       -5.48624928629814        3.83023801273528
H           -7.12088659058218       -6.21876338077286        3.39755504935349
C           -6.55762163327027       -5.16097882339835        5.17777657243261
C           -5.69743566721423       -4.22317353446382        5.73730381318969
H           -5.77980331984330       -3.97544797459895        6.78838813593250
C           -4.73188493521092       -3.61255615338694        4.95227758395267
H           -4.05637197932693       -2.89274079331385        5.39655616514529
C           -5.54451095306958       -1.32151901218555        2.41776714354969
C           -6.22554482779789       -1.36819638360017        1.19817279120897
H           -5.67096721097420       -1.54829662931864        0.28339790996953
C           -7.59761755444642       -1.18026729050831        1.14713239249975
H           -8.11253515837702       -1.22232224050173        0.19435476959323
C           -8.30719574122308       -0.93509908536826        2.31542921564635
H           -9.37979198079792       -0.78613921587494        2.27725940224254
C           -7.64000793813800       -0.87697283952648        3.53204167139005
H           -8.19069638215510       -0.68303759559472        4.44505318540831
C           -6.26812181623353       -1.06687035507978        3.58608153236027
H           -5.75556536121744       -1.01838471711520        4.53962355383454
C           -3.12143611351561       -0.71649044843750        3.85465658912639
C           -2.19067947386584       -1.27842477193660        4.73003039909924
H           -1.88414884802481       -2.31027968743550        4.60055602818107
C           -1.66270549968095       -0.52855551395024        5.76899677837119
H           -0.95721743309135       -0.98449079880083        6.45370235675298
C           -2.03670645884700        0.79870205291846        5.93176278189582
H           -1.62630484223631        1.38209888770687        6.74767990949618
C           -2.93189987011293        1.37926112399734        5.04349442531097
H           -3.21234465267405        2.42035477448568        5.15395281704797
C           -3.46667672364347        0.63024694104470        4.00761008565566
H           -4.15315516553760        1.09196191679631        3.30596832846960
C           -2.35406727206347       -5.71325321484722        3.16817016715906
C           -2.93683978730598       -6.92253413666504        2.78289874606785
H           -3.38694301970126       -7.01864126397436        1.80159416449743
C           -2.94617771752296       -8.00059076297767        3.65457696062750
H           -3.40406888760000       -8.93371491897581        3.34770293869216
C           -2.37665309683070       -7.88546367590415        4.91517222464513
H           -2.38967955007345       -8.72912182327105        5.59505833055004
C           -1.78540337181152       -6.69000005371955        5.30344319928695
H           -1.33473283067958       -6.59834095118681        6.28480038569606
C           -1.76745931118486       -5.61256712803589        4.43353898193257
H           -1.30033655323590       -4.68022092337105        4.73432294052276
C           -2.87409211249654       -4.79495698356623        0.46772547835248
C           -4.02258616538771       -4.32606175010485       -0.17013627915319
H           -4.70811225184960       -3.67974710278728        0.36393838358129
C           -4.29730268927971       -4.68427174949563       -1.48161408164231
H           -5.19329789748242       -4.31005519023518       -1.96317373677764
C           -3.42852075598478       -5.51587080664737       -2.17362134805203
H           -3.64432878554170       -5.79708653994989       -3.19761068347807
C           -2.27974332630352       -5.98795285841476       -1.55033752245453
H           -1.60093433838225       -6.64259507559057       -2.08472562613333
C           -1.99884712791138       -5.62171273888747       -0.24389750272479
H           -1.09152650748708       -5.97814859513126        0.23368730787427
N           -3.62754171293255       -3.29953518273792        2.78460973537119
Au          -1.37790127320060        2.61788019449011       -0.37901717713416
Au          -2.96443618660683        0.37746972679581       -1.91797316946368
Au           0.00027685334909       -0.00005425188104       -1.72924055967032
S           -1.60698670421381        1.73448177691055        1.78530462701128
P           -1.60586625646368        3.75214793206332       -2.40089559498776
P           -4.23932115687014        2.32194091005279       -2.11139073814328
Cl          -5.91863033533499        7.74831551551213       -6.14980576961460
C           -3.93252074008522        4.62875408539890       -3.60236200292333
C           -4.87097451301967        5.49024806453439       -3.04358676032875
H           -5.12548176766819        5.41257956574751       -1.99396746760454
C           -5.48625161700631        6.45075352119597       -3.83017991029159
H           -6.21876264941699        7.12090534903809       -3.39747966337256
C           -5.16098249880883        6.55767931302145       -5.17771663553561
C           -4.22317969743711        5.69750276947337       -5.73726282038281
H           -3.97545271863931        5.77989241121188       -6.78834482978510
C           -3.61256220570921        4.73193514764093       -4.95225823148303
H           -2.89274496800469        4.05643287093066       -5.39654961742043
C           -1.32152435442063        5.54453282248659       -2.41776981281045
C           -1.36821811730180        6.22557175730994       -1.19817900349991
H           -1.54833323263338        5.67100252183448       -0.28340331521786
C           -1.18028061309321        7.59764244290636       -1.14713970424722
H           -1.22234491194877        8.11256274956581       -0.19436377877867
C           -0.93509147887800        8.30721554648687       -2.31543441522097
H           -0.78612497730918        9.37981060405449       -2.27726580431871
C           -0.87695432853688        7.64002279267012       -3.53204382891190
H           -0.68300684547904        8.19070692895041       -4.44505475470227
C           -1.06685720251286        6.26813767310726       -3.58608176393013
H           -1.01836072758361        5.75557930345683       -4.53962189737115
C           -0.71648666647958        3.12146578430136       -3.85467133248445
C           -1.27842504262022        2.19071962817287       -4.73005205697846
H           -2.31028506434378        1.88420434353360       -4.60058913066386
C           -0.52855668452176        1.66274966138922       -5.76902113036517
H           -0.98449748765601        0.95727833146075       -6.45374007485487
C            0.79870503329404        2.03674094579263       -5.93177654251602
H            1.38210277847325        1.62634204965917       -6.74769422474772
C            1.37926994893730        2.93191567958105       -5.04349297617313
H            2.42036818849701        3.21234805751349       -5.15394069045669
C            0.63025509729212        3.46668909706901       -4.00760737259854
H            1.09197288090843        4.15314653746585       -3.30594755339457
C           -5.71321493644186        2.35404064921992       -3.16818831796351
C           -6.92249118336553        2.93684487511405       -2.78293242322846
H           -7.01859073453042        3.38697627822086       -1.80164011467455
C           -8.00055226971763        2.94618796686391       -3.65460848309786
H           -8.93366799868890        3.40410343117091       -3.34774221113471
C           -7.88544336391224        2.37663488261241       -4.91519245615482
H           -8.72910500849822        2.38965954114734       -5.59507573851438
C           -6.68998916214575        1.78535992433875       -5.30345347318588
H           -6.59834196932606        1.33466761455636       -6.28480208091616
C           -5.61255132937324        1.76741439608062       -4.43355222594961
H           -4.68021470331565        1.30027393394060       -4.73433578261555
C           -4.79496169189985        2.87406671710312       -0.46775965188094
C           -4.32606910361505        4.02255628408914        0.17011633957732
H           -3.67973328635979        4.70807284753239       -0.36394307283412
C           -4.68427329164905        4.29726134889076        1.48159849247084
H           -4.31004752208489        5.19324855210213        1.96316648939330
C           -5.51588648393437        3.42848562171337        2.17359527310149
H           -5.79711446633562        3.64429511404737        3.19758121820296
C           -5.98798319732837        2.27972273859395        1.55029597273505
H           -6.64264318087388        1.60092109256668        2.08467228570894
C           -5.62173982709796        1.99883258501489        0.24385402521958
H           -5.97819225513282        1.09152302447312       -0.23373903842710
N           -3.29952380447852        3.62754858835737       -2.78462041194152
Au           1.38066056645188       -2.61846195319704       -0.37920352106879
Au           2.96436183564702       -0.37689379338705       -1.91753194137893
S            1.60663903478269       -1.73520002381495        1.78554912749196
P            1.60580794142101       -3.75219448160728       -2.40097709299352
P            4.23925977459842       -2.32194740242385       -2.11139526851662
Cl           5.91865560594268       -7.74823542298936       -6.14990043812541
C            3.93250181815519       -4.62876847381971       -3.60237423543515
C            4.87102187660153       -5.49021836189000       -3.04363687679487
H            5.12557144649539       -5.41254096613044       -1.99402854581146
C            5.48631295341102       -6.45069400734716       -3.83025675781963
H            6.21885804026285       -7.12082708512451       -3.39758467207611
C            5.16100299677102       -6.55762613344637       -5.17778281576453
C            4.22315841377388       -5.69747599163101       -5.73729793708098
H            3.97540359023271       -5.77987164015746       -6.78837328703281
C            3.61252547123319       -4.73193847713698       -4.95226790145437
H            2.89268285552030       -4.05645132331842       -5.39654214622744
C            1.32148295856350       -5.54456094978516       -2.41782782009827
C            1.36817380613810       -6.22556615835668       -1.19822205198587
H            1.54828303851376       -5.67096823630583       -0.28345686531946
C            1.18023540805566       -7.59763438795129       -1.14717137546296
H            1.22229840538170       -8.11254702032221       -0.19439181055660
C            0.93505221290298       -8.30721375741936       -2.31546619972786
H            0.78608778535282       -9.37980727070009       -2.27729137133226
C            0.87691955417717       -7.64003715812210       -3.53208522989703
H            0.68297276773278       -8.19072322310918       -4.44509369689544
C            1.06683108258521       -6.26815958343857       -3.58613691635240
H            1.01834120702517       -5.75559599062758       -4.53967537120626
C            0.71648885604216       -3.12144679016400       -3.85474739594140
C            1.27843503218377       -2.19067482670669       -4.73009087295773
H            2.31030424613491       -1.88418783709693       -4.60063630176480
C            0.52856552543504       -1.66266008989761       -5.76903100988215
H            0.98451026931538       -0.95717304388689       -6.45373018208732
C           -0.79869736676992       -2.03664314630438       -5.93179126094982
H           -1.38209433216164       -1.62621915258432       -6.74769481243175
C           -1.37926779129195       -2.93183456235354       -5.04352679072922
H           -2.42036482876895       -3.21226534584672       -5.15397938926303
C           -0.63025504379923       -3.46664147941933       -4.00766340546048
H           -1.09196609350299       -4.15311839172017       -3.30601637656956
C            5.71322915936396       -2.35407351866798       -3.16810611203779
C            6.92252830626500       -2.93678651311165       -2.78276933684709
H            7.01862143410729       -3.38685354801472       -1.80144745733669
C            8.00062193873471       -2.94613612959232       -3.65441188137035
H            8.93375262769870       -3.40398554371749       -3.34748843066052
C            7.88552976985854       -2.37667148124397       -4.91503664238325
H            8.72921707791431       -2.38969495399150       -5.59488939364362
C            6.69006003728566       -1.78548046472283       -5.30337631716065
H            6.59842715974168       -1.33485317131242       -6.28475650080553
C            5.61259037310117       -1.76753324891231       -4.43351287696915
H            4.68024498261617       -1.30045174867826       -4.73435658766571
C            4.79466541235991       -2.87397153918179       -0.46765372566675
C            4.32582888469044       -4.02250446614113        0.17017099196379
H            3.67954978573679       -4.70803980018828       -0.36393456166415
C            4.68418630692798       -4.29732221205183        1.48159619563730
H            4.31006132590390       -5.19337674296614        1.96311895401863
C            5.51575937129148       -3.42853283081588        2.17363218847159
H            5.79697970054126       -3.64435386528532        3.19761991189909
C            5.98778017928163       -2.27970921535367        1.55038993835373
H            6.64238360484304       -1.60088253915510        2.08480752980629
C            5.62150196583542       -1.99877960980132        0.24396349392556
H            5.97795676279696       -1.09145805041285       -0.23360558331362
N            3.29948196582536       -3.62758655540797       -2.78461922636547
