264
 energy: -425.646008513504 gnorm: 0.000046630507 xtb: 6.5.1 (579679a)
Au           5.09894032531535        2.72010683166558        1.45758061569507
Au           7.82844227871496        2.53357260866707        1.55215547353247
Au           6.52893676903479        3.70968880148149        3.69077116958021
Au           7.07631550735301        2.23404934863219        6.02024529979958
Au           6.41702040938950        5.06357018124981        6.06429604554745
Au           6.60998348977180        5.19737184625370        1.36552998401603
Au           7.93718393771864        6.17526778928952        3.87063449063285
Au           6.28109634583789        1.00104654022103        3.60112514598797
Au           5.19891123881184        6.24321850602312        3.74516412335478
Au           4.52658189979989        2.57301286881410        5.46192051350583
P            6.02251093211637        6.03659499076540        8.21348837259857
C            7.45058829374747        5.97354157813215        9.33812751482090
C            7.45552809053132        5.32873434116144       10.57462947470766
C            8.60905394286647        5.30672790025860       11.34531098654756
C            9.76266175939339        5.93385850828633       10.89822953554207
C            9.76755597384541        6.57875851576508        9.66781009050734
C            8.62410461981592        6.58773051666906        8.88850797156496
C            5.68723451959519        7.83013724723746        8.18228893520097
C            5.74858595857950        8.60904348819211        9.34149610447916
C            5.54850397956760        9.97890855326697        9.27931671257071
C            5.28904601376912       10.59368303308301        8.06062309439748
C            5.22679017410471        9.83142655713763        6.90221111041621
C            5.42577645757274        8.46050440786858        6.96625559741005
C            4.65130779039780        5.29486585343312        9.14659090717808
C            4.68523990698068        3.91060051991150        9.35185533072929
C            3.63842755553651        3.26940174292345        9.99255284526172
C            2.53934484830154        3.99692065910777       10.43003574639565
C            2.48761005093776        5.36697721953218       10.21600337713437
C            3.53483643264865        6.01400875373278        9.57703996384609
P            6.45614723217502       -1.35939555694693        3.25067074181014
C            6.38519124832061       -2.09189402914527        1.57854263641108
C            6.66807646198419       -1.25814157742024        0.49605221558289
C            6.61752140190477       -1.73624751018491       -0.80363809426064
C            6.28370026259748       -3.06265568141742       -1.03884479369169
C            5.99881860961019       -3.90353093391741        0.02933702911047
C            6.04400813865686       -3.42322117790382        1.32934724975536
C            5.18876550222236       -2.26121346823469        4.19528244730768
C            5.39354802283821       -3.51708303389298        4.76965413161519
C            4.37946504439792       -4.12818861832118        5.49213555211301
C            3.15422239177922       -3.49503318069110        5.65347045836150
C            2.94350222985334       -2.24092480607127        5.09569815997428
C            3.95611502161757       -1.62868278371110        4.37558906860571
C            8.03574667655154       -1.96527668929936        3.92259880861407
C            8.84653368139577       -2.90961541333437        3.28936602912365
C           10.08057463535854       -3.24866059300335        3.82580633420207
C           10.52117094075877       -2.65291786775309        4.99921472860013
C            9.72115601715254       -1.71622648744384        5.64087884586959
C            8.49256215654172       -1.37300121394005        5.10379857163474
P            2.24767740433536        3.31287629918330        5.24260646559451
C            1.08580637095738        2.43960541891281        4.13157479571329
C            1.58793429330368        1.58193314836500        3.15391364402018
C            0.73481007705238        0.86026383066969        2.33486204454969
C           -0.63950160952400        0.98958569815996        2.47730976406434
C           -1.15285417613116        1.82567433686579        3.45883422344259
C           -0.29828111157667        2.53412368132261        4.28958699458536
C            1.47203183136489        2.70687997551635        6.82593211191607
C            1.86197168673654        1.44963185470567        7.28992615976365
C            1.31172209613278        0.90271588199595        8.43764849175201
C            0.35109263369733        1.61092308854993        9.14858582111641
C           -0.04353967954802        2.86600166187434        8.70580781833164
C            0.51282818053047        3.40909488952498        7.55596569846337
C            1.76246174439577        5.07428495718391        5.34046425517583
C            2.51182355412141        5.88617745193064        6.19454093357316
C            2.26219456337084        7.24626688505930        6.28277489199607
C            1.26172101296392        7.82042388620614        5.51024868341159
C            0.50559500579097        7.02239823761425        4.66367425415348
C            0.75000632744588        5.65959654952170        4.58088614309071
P           10.05995353902257        1.74876498322510        1.15208952306848
C           10.94801574534264        1.20614262535729        2.64574052593691
C           11.92972011527293        0.21088191910674        2.64777726717490
C           12.57990833296293       -0.13039786350686        3.82376006506223
C           12.26286714799924        0.51373646459672        5.01279751852828
C           11.28960212471340        1.50192742049782        5.02068840993742
C           10.63921013692507        1.84610979720815        3.84728951431661
C           10.16871729224678        0.33260782738715        0.01676423960964
C            9.86644477931802       -0.95038056432503        0.48160544697388
C            9.82690654720458       -2.02663193385084       -0.39045072615259
C           10.06543865528283       -1.83550596221171       -1.74491960203197
C           10.34986419480898       -0.56269743281858       -2.22156531705810
C           10.40039643742486        0.51382502773187       -1.34907521417189
C           11.21410913800532        2.95760532646288        0.41942836578196
C           12.55218420391257        2.64010533405097        0.16843051101898
C           13.40351717048614        3.57769504783571       -0.39376061796841
C           12.93114136381785        4.84381848123815       -0.71776869799444
C           11.60629475806623        5.17046825601444       -0.46823739846161
C           10.75527537899648        4.23515138201923        0.10251602537786
P            3.92183127808419        1.90547930062095       -0.48582096614237
C            4.99884016386074        2.08753632407200       -1.95114178016538
C            6.35693036558654        1.79914588118258       -1.79880466380469
C            7.23888844511798        1.92610519831417       -2.85848840251535
C            6.77906080754996        2.36629489694327       -4.09294564303825
C            5.43401937885480        2.66521487351118       -4.25756611960327
C            4.54833351959811        2.52134981540392       -3.19881864352849
C            3.54989514226838        0.12045059802116       -0.49326581893497
C            3.49708436231139       -0.55494285797063        0.72553580747436
C            3.15970312894793       -1.89878014166218        0.77885474824686
C            2.89000319199295       -2.59051445288343       -0.39321412717482
C            2.96291302303191       -1.93511495220923       -1.61601578034172
C            3.28610331939129       -0.58834457246634       -1.66804004205211
C            2.35829958796235        2.67138068937245       -1.00805612771293
C            1.15085138483629        1.97541256364724       -1.08957239653130
C           -0.01515517685691        2.63546564397196       -1.44642633094293
C            0.00821790763800        3.99328605074391       -1.73059618708247
C            1.20104886662287        4.69785304576428       -1.64130724965972
C            2.36450863238021        4.04653467691923       -1.26743816638199
P           10.12082476123266        7.12997612968935        3.98563288486926
C           10.54430414436546        8.25991520422972        2.62034069306378
C           11.20332557181634        9.47489506884996        2.81337595091832
C           11.47291681193954       10.30694115461346        1.73737250942303
C           11.09553197901970        9.93470854196493        0.45439548523794
C           10.43963924760041        8.72857327533062        0.25125380258147
C           10.15720624230028        7.90183136192621        1.32683673617841
C           10.22959380214505        8.17978848579075        5.46673861302432
C            9.05328185110710        8.80634847853251        5.88744889791579
C            9.04204519011715        9.61608221516357        7.01185929645609
C           10.20823248921713        9.80044757610544        7.74311575577842
C           11.38301204508687        9.18148328441205        7.33749753852261
C           11.39812209758673        8.38181042445009        6.20428126202341
C           11.54604712112485        6.00765149328438        4.08466622952781
C           11.79239587827520        5.34161544291289        5.28840794987554
C           12.81303919194281        4.41011761269088        5.38460546859439
C           13.58361826736658        4.10623502473745        4.27088059486297
C           13.33423662422105        4.74679919296842        3.06420641605340
C           12.32492673140886        5.69273148655576        2.96905130397262
P            6.24252919982307        6.94554133156698       -0.28322060568270
C            6.58495806984899        8.67046121578905        0.22018402722134
C            7.15832913723491        8.88754516691485        1.47272900650607
C            7.48726619577466       10.16129784044640        1.90596102694163
C            7.24910558274891       11.25297689445463        1.08323385436164
C            6.67683041874316       11.05675242450014       -0.16617614158848
C            6.34651875473278        9.77972242998169       -0.59591206142614
C            4.90280462475537        7.04484829054708       -1.52983613708245
C            4.87803164133774        6.12317040600186       -2.58092829225050
C            3.89269089993762        6.18425946612733       -3.55392321670536
C            2.90804989691599        7.16188281946026       -3.49011291439561
C            2.90911888687688        8.06704638404527       -2.43855971413867
C            3.89417175729447        8.00600313808786       -1.46446840155440
C            8.26034075831108        7.69471401998251       -2.23714469286203
C            9.27098695706298        7.40015942886583       -3.14266650616476
C            9.66855040870511        6.08599316514881       -3.34693924151753
C            9.04561528777193        5.06750653268792       -2.63929499461467
C            8.04245839677240        5.36988765404642       -1.73131953667992
C            7.63008013983199        6.68510361077130       -1.50869612010457
S            4.26055094948555        7.35007112700470        1.67849759724233
C            2.48150624787911        5.21156082352110        1.93129992095600
C            2.81341370476683        6.43756679844063        1.42176456550740
C            1.24241943241570        4.61589248590133        1.61504630323864
N            0.23684262983880        4.09366136302645        1.39163225805634
C            1.87351674183232        7.08928795369971        0.58800349207673
N            1.11290046070187        7.64095740034805       -0.08259492177824
S            3.44544476469701        4.27004106656990        3.03922834272942
S            7.38721427035356        1.69908003842877        8.34452673394133
C            9.48976045037807        3.44801761523295        7.83270989227074
C            8.80381132185882        2.61193288594765        8.67507478243688
C            9.25962188916325        2.43439176144234       10.00380718969740
N            9.59030722397502        2.28801680362392       11.09953270705264
C           10.69944928013489        4.05037319952245        8.22717646225534
N           11.71524865095003        4.54939904085444        8.46627437932974
S            9.06359415032335        3.82783378934634        6.19273067002824
H           10.70141891329348       -3.98002384384028        3.32040695342321
H           11.48913639734951       -2.91439456397403        5.41095136398250
H            3.48312027155939        7.08465641533620        9.41442043337851
H            5.38595252184631        7.87034882397804        6.05759050179233
H            6.83577805218918       -1.07223786999648       -1.63253228881868
H           10.06054104344545       -1.24278435216891        6.55484001278084
H            7.87952729182404       -0.62888818088230        5.60030230591893
H            2.66161025119737        1.49321904799293        3.02878776241971
H            3.67661655908223        2.19674211743493       10.14507719242685
H            1.14282905813473        0.19657888042142        1.58057443163807
H           -1.30803767959475        0.43537892146091        1.82816757957136
H           -2.22554542150014        1.92408728605745        3.58252279531907
H           -0.71389976070270        3.16061105353002        5.07071968706968
H            2.61224991943336        0.89162002485327        6.73752906776768
H            1.63093278992179       -0.07596453175721        8.77880877339543
H            5.60000105103814       10.57175881570081       10.18568529327878
H            1.62631415664595        5.93702919494057       10.54617246705591
H            6.56012988742070        4.83630312367891       10.93567867686839
H            8.63337445215391        7.07002968991625        7.91680528706601
H            5.96370907873321        8.13841469610858       10.29456401028845
H            5.02708009261610       10.30321280794976        5.94687668366339
H            5.53813843190505        3.33192598137425        9.00561527880110
H            6.92725820337865       -0.22088550630808        0.67995309195017
H            6.23893890395780       -3.43975313951552       -2.05406738234668
H            5.73346715649363       -4.93903164065495       -0.15164671392271
H            5.80451798666130       -4.08421902054393        2.15469352832921
H            6.35305557733961       -4.01083105750048        4.66228368248485
H            8.60820147068139        4.78356842442214       12.29447849179916
H           10.66390501815995        5.90681415933302       11.49924419749098
H            4.54902345203985       -5.10274542542581        5.93603181693948
H            2.36643028877309       -3.97545516506817        6.22232064556075
H            1.99375100543490       -1.73522611049669        5.22821519745935
H            5.13828449980568       11.66621025455170        8.01465747947356
H            1.71927468270746        3.49446139384612       10.92978625524838
H           10.67182958269171        7.05278661015015        9.30351906776398
H            3.79851948635900       -0.64038210746862        3.95733165603774
H            8.51243348980696       -3.38559767810408        2.37425377493572
H            8.12038226110707       10.09502354736379        7.32285706141625
H           12.29500768945164        9.32221935323860        7.90637608586431
H            9.66216223195429       -1.10574519334164        1.53551505516263
H           13.59649372929047        5.57468714136341       -1.16270799043889
H            9.72152453657875        4.49558413381921        0.30007985906928
H            2.76295566639607       -2.47631807905116       -2.53398348455311
H            0.19760807270800        4.39341206416269        7.22846710474064
H           12.92828756173226        1.65353121195957        0.41556066598699
H            9.61915134547823        6.97311239544573        1.16834422513180
H           12.18542939814644       -0.30381395713475        1.72839286181907
H           10.13341728993158        8.43747358417197       -0.74660004848390
H            8.13732335139484        8.64937019469260        5.32755218854686
H           12.32190622615815        7.90532870547132        5.89710545903690
H           11.30590403162327       10.58648252567563       -0.38583573624636
H           11.17213518980920        5.54791198432075        6.15183043657655
H           11.02528729709311        2.01324126245015        5.93875057991640
H           10.02697954883373       -2.67642033742514       -2.42778207862028
H           12.99778347060992        3.92185667142570        6.33465779508444
H           14.37526216756715        3.36870578787040        4.33999055178989
H            1.11937073959385        0.91355133439138       -0.87474546947393
H            2.63140701056511       -3.64255782189351       -0.35579921105494
H           -0.90505800683861        4.50670614968555       -2.00746694538933
H            0.15506809351600        5.05483527486144        3.90790512538985
H           -0.27816653960031        7.46242732356628        4.05745555557193
H           -0.08491601674573        1.18728088564205       10.04628741321953
H            1.07349834406386        8.88640601337435        5.56869459303084
H            2.85350752454771        7.86081964403448        6.95232469323783
H           10.63114080569607        1.50288044373989       -1.72940415271926
H           11.23269614569278        6.15420558435641       -0.72584078520615
H           12.77243890063445        0.24349628188626        5.93032147043347
H           14.43878828098166        3.31865383275800       -0.58448403266409
H           10.53465364144767       -0.40691928055970       -3.27852627788639
H            7.46861038692319        2.47967115764683       -4.92150993359198
H            5.06838929047492        3.01130578589248       -5.21780138906364
H            3.73364072934305       -0.01984073908044        1.63820508207154
H            3.11625126484606       -2.40613703490952        1.73616659489827
H            3.33591450897803       -0.08180209657770       -2.62572555373894
H            8.28677289682027        1.68572125772269       -2.71785490256130
H            6.72882243513343        1.48091739208766       -0.83114588398833
H            9.59897657464524       -3.01710354638558       -0.01261368802527
H           -0.94692302742168        2.08360970848290       -1.49900439414845
H           13.33813884373583       -0.90544704682740        3.81007945590524
H            1.22033175759266        5.76234457860467       -1.84265216566753
H            3.29069017431239        4.60338619009628       -1.17185676545397
H           -0.78997885804411        3.42649376135022        9.25798161700240
H            3.50042189720887        2.75668984013892       -3.34414204363103
H           11.50367871503066        9.77395532800152        3.81128343186316
H           11.98005364789006       11.25096420655298        1.90237235684398
H            9.88137604180459        2.62229248713158        3.87276978126332
H            3.30010990213053        5.44417921066537        6.79439286078594
H           10.19971867898715       10.42223312932646        8.63096895084304
H            9.74766766882177        8.20328855018656       -3.69384186823515
H            9.34549429778513        4.03594952630189       -2.78869976236951
H            7.93301502536942       10.29860785432566        2.88518060389123
H            3.86537968531944        8.69787857263594       -0.63055302779394
H           10.45848123122281        5.85689291376337       -4.05315545633022
H            5.63915273197707        5.35374027550497       -2.64765175324510
H           12.14485611863083        6.18981002806577        2.02222078180555
H            2.12864015156984        8.81465554023266       -2.36053483661186
H            3.89367546944706        5.46279712031062       -4.36377634074656
H           13.93026381709257        4.51019524358929        2.18944196914853
H            6.48532498278067       11.90473561391383       -0.81435481649170
H            7.56787851269245        4.56530840190356       -1.17906280130473
H            2.13963474135488        7.21120181482769       -4.25301477955925
H            7.50616655000111       12.25266202800607        1.41448389833495
H            5.89310900874692        9.65206906372581       -1.57205008289870
H            7.96296237147903        8.72827605712573       -2.10325193494548
H            7.35018261745707        8.04206526933796        2.12241426984256
