286
 energy: -444.360678981041 gnorm: 0.000263481769 xtb: 6.5.1 (579679a)
Au          21.74331273550266       21.84568436161040        6.42208833453782
N           21.67763360500213       21.70145893804532        4.19614884788400
C           21.37091609134913       22.40515281885834        3.30523362526660
O           21.07444379826952       23.08798466426651        2.37589955681607
Au          21.60599974216451       19.95064128294730       10.80975070906985
P           20.98750989639381       18.17967203452028       12.26870430237237
C           20.13025269141396       18.71576639928297       13.78192755245287
C           19.16472500816684       17.94016443930023       14.42905638031334
H           18.86639400690755       16.98554154429232       14.00971487258926
C           18.57543179537058       18.39023910188134       15.60059123937681
H           17.82717067167014       17.78025397790686       16.09454095742214
C           18.94017038102573       19.61727166262850       16.13974775138664
H           18.48093288439019       19.96357790642754       17.05883024098214
C           19.88405409992405       20.40321561268280       15.49305869010950
H           20.15979224461469       21.36807942786988       15.90232728557902
C           20.47102489596859       19.95917385595405       14.31843658479297
H           21.19335572918960       20.58533347536795       13.80835739087324
C           19.78272996016011       17.07378565426019       11.47368649368943
C           20.04400046556103       15.74258366045918       11.14905647233575
H           20.96454085311770       15.27656110314139       11.48248309890848
C           19.13166049837158       15.00784861865096       10.40514352541676
H           19.34858064956850       13.97431304799999       10.15892076294277
C           17.95004007453334       15.59255419017943        9.97166581320596
H           17.24333481833866       15.01946310307413        9.38242770748602
C           17.67746789361349       16.91697954691866       10.29133088281291
H           16.75871981216962       17.38078009626161        9.94921017908643
C           18.58730299075729       17.65171408638477       11.03244463540858
H           18.37710938204127       18.68814946971408       11.27463837122909
C           22.29874389023679       17.06571930250786       12.87638885766210
C           22.17343886737550       16.26571920922785       14.01372910645154
H           21.25575996422891       16.28583103587592       14.59097087855530
C           23.21850359632034       15.44757510950866       14.41422014564702
H           23.11011421294684       14.83142010472756       15.29984327750691
C           24.40124273471174       15.41583144331878       13.68657601137703
H           25.21620995483804       14.77448493861461       14.00233469572231
C           24.54059399253669       16.21420315130820       12.55987016469613
H           25.46398047924636       16.19897133908322       11.99182560687074
C           23.49819240551336       17.03720940255084       12.16347148923496
H           23.60901341479133       17.66934142686999       11.28905004022062
Au          19.39672586145548       22.37007690772388        8.29459303600101
P           17.74818286671082       21.19970697014757        6.99906849329045
C           18.72790834249966       19.69265918639218        6.69918569223940
C           19.18085530330715       19.00598443802807        7.83107178792554
H           18.86040793980111       19.33148764915416        8.81473681970532
C           20.03668224808563       17.92431378801592        7.71226024463993
H           20.37442743584663       17.40508344760904        8.60223567072796
C           20.46244321864303       17.51163162184888        6.45596825108736
H           21.13893593278073       16.66966982959302        6.36013950785400
C           20.02488543337239       18.18823403497230        5.32676910905516
H           20.35760494729229       17.87486342830655        4.34406056665890
C           19.16971711876431       19.27428669269113        5.44460914867788
H           18.85087788777105       19.79984554647182        4.55244770066722
C           16.23729497812527       20.54045844206233        7.78568305750754
C           15.82413210124402       19.21389652268178        7.64671490146576
H           16.39170262832604       18.53604272159276        7.01924041482854
C           14.69465014535445       18.75543784625192        8.30790005139252
H           14.38508321074167       17.72269543295520        8.19196715236992
C           13.95776964097679       19.61591499599269        9.11187913981964
H           13.07279424497867       19.25676856271977        9.62477166275216
C           14.35879110196351       20.93758332687622        9.25721983429828
H           13.78978979137216       21.61229137466641        9.88698450648374
C           15.49529919179957       21.39266917072352        8.60660779160505
H           15.81469404532531       22.42116656018005        8.73812817776382
C           17.23690720937741       21.74589348928712        5.34327620592732
C           15.92318877019477       21.68309135565478        4.87537332048816
H           15.14543871058331       21.25304362599062        5.49680462176090
C           15.60940647724770       22.16617516025762        3.61327464213130
H           14.58587770356640       22.11206016819640        3.25846131284068
C           16.59861681263008       22.71241149421650        2.80575389266179
H           16.34749565238989       23.08303980056736        1.81836258589102
C           17.90687327483059       22.78898953604697        3.26611311547824
H           18.68414212416528       23.21660137833553        2.64364562637514
C           18.22012096661231       22.32028598364341        4.53116946962844
H           19.23731790008036       22.39817709497758        4.89785113212400
Au          21.84525007582105       22.14090663972655        9.34912197285955
Cl          22.22722646271703       22.80496296358879       12.90420974234557
Au          24.08435032063465       21.47284136250094       10.70136615654934
Au          23.33423381259504       24.32553650803721       10.38846944422388
Au          19.84222066636561       22.30025758491514       11.11302579420794
Au          23.18768476212496       20.04344004162813        8.22195724935290
Au          24.01857045907152       22.96256371737637        7.97628729147618
P           23.71790725437276       26.03225805897217       12.07064194020452
C           24.65268159993086       25.96279719137427       13.64197672837584
C           25.51161487561458       26.98241364723937       14.05825409605781
H           25.62678412824304       27.87712474172633       13.45673576564599
C           26.22360511197802       26.86184683199105       15.24228225013189
H           26.88594785690929       27.66216168722839       15.55391000891496
C           26.09191209861517       25.72243290756695       16.02518552392296
H           26.65326190806961       25.63029174275357       16.94832529726638
C           25.24484572290022       24.70088202454597       15.61699385129691
H           25.14308396169337       23.80494982285278       16.21920443738774
C           24.53421203964333       24.81682227858022       14.43325795222393
H           23.88301204818166       24.01176635786980       14.11501997647214
C           24.49061423507409       27.43325936512881       11.19277952792644
C           24.13742592939103       28.77087645563325       11.37800152412421
H           23.36595858382917       29.03052503305085       12.09426242733187
C           24.76075197008570       29.77112351941596       10.64513456678540
H           24.48068422319681       30.80696789033855       10.80182086632930
C           25.74611278464837       29.45095174935896        9.72026153350522
H           26.22944401197187       30.23443578969380        9.14770404146135
C           26.10988933301397       28.12407347457598        9.53041865357227
H           26.87883905655420       27.86672227741322        8.81049069771763
C           25.48242816091404       27.12593377760466       10.25888752613666
H           25.75679690508957       26.08831433775346       10.10112944212824
C           22.09298138550682       26.69328559429534       12.54833712458982
C           21.61545530009459       26.71451360608296       13.85844445382907
H           22.25422860320736       26.39275741055112       14.67304034983449
C           20.32453245264036       27.14558438326141       14.12781582358122
H           19.96544009792235       27.15717814040593       15.15086214626476
C           19.49280925531214       27.55825586745867       13.09685781196119
H           18.48442453867178       27.89423999165564       13.31072382329829
C           19.95594844074809       27.53341589752543       11.78663267388164
H           19.31579449632655       27.86235070078862       10.97553890379221
C           21.23946354442557       27.09190431652791       11.51477969557085
H           21.59165965936559       27.05793054335662       10.48936878067591
Au          21.46680411973935       24.44276383458933        8.08415748745337
P           18.05940436733085       22.78622337328943       12.63057618119953
C           18.24396804461020       23.67963490678519       14.21191324082557
C           17.15338814455805       24.27662946744121       14.85220350001584
H           16.16709726938579       24.22286411419831       14.40337850976411
C           17.32675157107856       24.94375134753186       16.05425035184468
H           16.47470024828485       25.40388850452353       16.54254960301548
C           18.58779071235300       25.02397710616050       16.63301192908555
H           18.71868893773899       25.54355062903909       17.57572052191625
C           19.67749526200543       24.44502682518342       15.99781334565190
H           20.66522975564808       24.51302259851211       16.43957257146799
C           19.50860647039037       23.78174021646853       14.79087833183698
H           20.36712482420147       23.35364288554278       14.28807966709322
C           16.97897192689363       23.92687742927126       11.70374103554153
C           15.61835861038589       23.72928388761428       11.47134104558649
H           15.11849235930479       22.85915495509983       11.88143650613826
C           14.89386320202288       24.64025398672538       10.71471419115466
H           13.83731621183942       24.47115287350665       10.53821624546597
C           15.51441944555688       25.76635703861064       10.19191866917868
H           14.94554905766763       26.47984639516083        9.60673145526989
C           16.86863122107410       25.97648253500704       10.42300421930063
H           17.35735638139942       26.85646181801406       10.01963106707910
C           17.59570361092205       25.05805402363291       11.16172879529850
H           18.65608488233652       25.21536994716954       11.32691882318283
C           16.95919859584334       21.38780339420372       13.01497102932186
C           16.57395322272296       21.02843239863385       14.30628433585593
H           16.88747824435820       21.63012725575551       15.15164603205016
C           15.79148538070982       19.90307319857761       14.52148621955136
H           15.50025342673378       19.63751003741058       15.53170939528901
C           15.38208031975021       19.12032561941967       13.45160076036703
H           14.76842412633086       18.24289585398153       13.62108625709313
C           15.76544691327953       19.46356900389312       12.16132096111619
H           15.44417358628502       18.85939069364825       11.32033612810965
C           16.55790413197069       20.57907020302602       11.94616764829163
H           16.86517797629494       20.83744156752293       10.93801632855301
P           20.59598370829028       26.27540485048881        6.82878074844412
C           18.89269115039622       25.84623912854731        6.34529770043742
C           18.06239842140520       25.29731934697974        7.32736708888771
H           18.43672307284172       25.18134747222656        8.33788898429688
C           16.76852528885566       24.90576078548339        7.02578273934938
H           16.13768108063450       24.48934802839738        7.80319702302411
C           16.28411193378901       25.04582814811361        5.73224137613779
H           15.27549967862598       24.72950197706134        5.49172364204346
C           17.10224661364663       25.57880360203633        4.74610642716718
H           16.73310227139448       25.68018223505598        3.73186439307638
C           18.39673371940292       25.97631114418358        5.04769524075273
H           19.02548686806576       26.38568254146695        4.26580978651533
C           20.41285098869216       27.86039421041566        7.70752451058623
C           19.18243581708992       28.46217303175580        7.97343379596350
H           18.27031579355006       28.02340537653775        7.58545341780767
C           19.11531757506510       29.62230563161419        8.73182428002513
H           18.15161832630938       30.07722213235121        8.93217401814077
C           20.27465326870056       30.20129629343383        9.22988880417385
H           20.21969714354865       31.10810022709968        9.82129114056143
C           21.50514467177863       29.61022189883612        8.97332912309240
H           22.41477876219355       30.05252581996029        9.36352598263911
C           21.57172610667205       28.44301102817275        8.23054576064304
H           22.53202715379329       27.97147443220311        8.05126928395642
C           21.38669673820075       26.69362088426409        5.24703748497792
C           21.61322679749429       27.99808779474450        4.80473572519859
H           21.32207681848212       28.83955671475194        5.42354571035293
C           22.20485116093735       28.22270555004338        3.57038397052629
H           22.37369796338434       29.24006633132565        3.23445744212407
C           22.56984055651519       27.15280070538291        2.76362314638687
H           23.02244437327802       27.33507574002284        1.79547018812935
C           22.35637481849286       25.85155937699804        3.19847819139959
H           22.62739576820196       25.01123476260751        2.57095810050273
C           21.77880245972680       25.62412478818929        4.43613602233611
H           21.61715716681298       24.60734603395827        4.77662678602463
P           25.91175261027939       20.90726962868717       12.12534196236457
C           25.45548494885349       19.92893819027799       13.59293557329326
C           26.20834558331922       18.85345148651035       14.07029223856914
H           27.13651841886345       18.57944754350580       13.58155558457326
C           25.77046320885353       18.12201391455869       15.16421750780786
H           26.36122946572028       17.28555146492233       15.52135879814287
C           24.57812244734988       18.45145200377348       15.79450675802295
H           24.23410332787037       17.86990302645380       16.64253285931843
C           23.82633250102680       19.52253343498321       15.33090626880834
H           22.89292152298992       19.78269713613713       15.81729745611741
C           24.25968215885826       20.25456118739799       14.23759489486925
H           23.66477034573984       21.08368833578390       13.87386203483051
C           27.19836660361313       19.87485980884245       11.34973478025847
C           28.55307298831500       20.20458890175525       11.30950626705217
H           28.90358771254399       21.11026297401979       11.79136066160577
C           29.46111943737188       19.37669882455370       10.66447938062827
H           30.51045700367838       19.64873519710740       10.63828012108756
C           29.03210833258937       18.20196468503181       10.06261848122177
H           29.74365457489190       17.55355218558319        9.56436733280495
C           27.68495259885022       17.86478995908336       10.09256814973987
H           27.34063273471400       16.95284937072996        9.61823543829444
C           26.77510557736870       18.70222871122037       10.71554704120704
H           25.72002913901114       18.45034581653835       10.71376413383129
C           26.84187002782511       22.31987833860216       12.80332008608475
C           27.58427294762909       22.24979767077837       13.98429102491281
H           27.60819756798210       21.32624802089530       14.55225866856534
C           28.28562577549695       23.35646453676099       14.43740154058428
H           28.85493756352809       23.29266714433512       15.35801782660342
C           28.25972020330665       24.54429178496897       13.71805908644809
H           28.80810435793198       25.40805779468996       14.07619007695590
C           27.51671027426568       24.62819745710267       12.54886074783506
H           27.48105098495869       25.55708096224173       11.99068533419507
C           26.80687064065190       23.52532498622571       12.10099875404399
H           26.20835197973686       23.59893183533768       11.19998057012725
P           24.49079406072001       18.35295026795033        7.10174820213110
C           26.22411284037304       18.80962023525170        6.75807780804807
C           26.83521643557829       19.74544649592337        7.59302414599735
H           26.26054621707076       20.19946114023330        8.39296801724342
C           28.16637149230234       20.08965540749836        7.41650303676425
H           28.63165789912839       20.80703872195652        8.08259886254935
C           28.90255963942147       19.51166526060000        6.39136280950385
H           29.94486893801622       19.77665287446304        6.25519650730676
C           28.29688921112085       18.60151880701693        5.53446215616003
H           28.86471557802836       18.15767987538394        4.72441251611948
C           26.96653311042510       18.25377749835966        5.71332884726823
H           26.49861287696316       17.54994605945728        5.03392485991557
C           24.63598553092643       16.73993331720529        7.94366999112026
C           25.75318772693718       15.90584308703207        7.86544042225148
H           26.59768991692524       16.18799839375257        7.24683455169390
C           25.79146945671026       14.71238007558962        8.57225013952616
H           26.66691803269030       14.07615676088709        8.50446702972943
C           24.71462639911558       14.33196543862115        9.36163814125265
H           24.74751881111383       13.40019092396592        9.91468084076371
C           23.59603630304394       15.15059241788069        9.44224323583671
H           22.75267365740606       14.85940395677390       10.05789969109501
C           23.56209094902174       16.34805322693070        8.74616674435183
H           22.69497628638480       16.99488616151376        8.82475109061642
C           23.85021359257323       17.93130729622483        5.45252450382806
C           23.73868424425766       16.63018091461542        4.95715103254808
H           24.07868918086744       15.79054189832159        5.55324538816212
C           23.18856508915792       16.40614251128131        3.70326563265994
H           23.10826238530275       15.39188609104570        3.32758791306923
C           22.73253433062193       17.47065196818036        2.93609965268358
H           22.29325098533158       17.28738456611421        1.96212384576601
C           22.83190547924426       18.76702974139922        3.42441849976650
H           22.45708972518846       19.60685547160380        2.85127075934250
C           23.39125342857074       18.99322764141608        4.67007969964693
H           23.45769646630929       20.00670812887614        5.04566459951369
P           25.77958076283469       23.60765387314158        6.50535835670359
C           25.54095689088441       25.29357431210433        5.85165881051865
C           25.06300041450182       26.26349372185244        6.73568038006411
H           24.82750386956555       25.98379338421497        7.75675347294049
C           24.88713066531309       27.57359870726485        6.32218235645220
H           24.52962481600477       28.31858272175634        7.02417131795535
C           25.16873783874014       27.93099563199457        5.01045558176813
H           25.02344089115451       28.95404058817996        4.68296681077212
C           25.62464263724594       26.97148113769804        4.11742074103055
H           25.83462481927631       27.24354363498434        3.08912719702465
C           25.81360782237856       25.66202885045775        4.53363106672686
H           26.16980650471447       24.92111753452077        3.82716821074749
C           27.42747184807432       23.74835895154884        7.27382496763920
C           28.50235439596618       24.39235437550877        6.65667408695885
H           28.38095301159571       24.81246349413587        5.66413655339883
C           29.72009146472066       24.50636375240909        7.30922075182816
H           30.54799425584081       25.00769334832410        6.82032282586893
C           29.88008634473678       23.98708774910486        8.58768424289917
H           30.83182666982325       24.08313802332289        9.09787587002402
C           28.81709396999340       23.35033048404993        9.21276833417086
H           28.93205411731437       22.95128193636024       10.21420328179508
C           27.60028629257028       23.23289389571028        8.55814989141687
H           26.76691347653280       22.73932867684667        9.04612318657230
C           26.00953787065560       22.60445038456030        5.00884128644778
C           27.19158388636786       21.94260584701587        4.67688172469522
H           28.07439561908565       22.06423677540691        5.29454884860860
C           27.24283589717480       21.12128556324831        3.55976958767746
H           28.16656223975472       20.60826141739745        3.31501467409663
C           26.11976663458688       20.95150142809884        2.76214993771238
H           26.16436340166616       20.30517316757839        1.89289053092404
C           24.93806410361584       21.60656117796747        3.08420936089750
H           24.05446371819191       21.47952382690689        2.47045307314809
C           24.88061505468722       22.41786127240478        4.20403925989999
H           23.94809881431357       22.90596108889606        4.46368132385166
