282
 energy: -444.128395946081 gnorm: 0.000309072281 xtb: 6.5.1 (579679a)
Au          -1.06268872663006        3.99866440928308       20.55404023388663
Au           0.29749937201332        4.65382967816827       22.93249423273070
S            1.43661042493283        5.33357313185178       24.95268821267223
C            2.76722521807043        4.26248670341506       25.11463082138047
C            3.61411044474422        4.38894992983597       26.22717579809628
H            3.41892803100784        5.16127874848989       26.96185235891663
C            4.68622627696317        3.53070543075600       26.37753829976180
H            5.34510586360025        3.62016181483353       27.23737096492228
N            4.97991854401564        2.56129586566862       25.50925118872779
C            4.18540513784494        2.43393739155556       24.44725361249452
H            4.44154639394622        1.64076753851693       23.74870230547516
C            3.09006527567060        3.24137186446036       24.21274700977357
H            2.47440545064704        3.08400026058394       23.33447493085748
Au          -3.50380234480989        2.60119771739008       20.66960488836333
S           -5.50214796932027        1.41095319085365       21.29146281049077
C           -5.12851817143202       -0.25626443007513       21.11512144755932
C           -6.01579601762486       -1.21011647467826       21.63504895470212
H           -6.90727754110941       -0.88168010941254       22.15648948536589
C           -5.74781037793831       -2.55567541355448       21.48228081767772
H           -6.42787129927549       -3.30136103948145       21.88607065299797
N           -4.67110400121601       -3.02361091655560       20.84805182486429
C           -3.82071465393192       -2.12650926979760       20.35077914676887
H           -2.94646249383340       -2.52533915786093       19.84209385326298
C           -3.99804294323099       -0.76131928425365       20.46191864842455
H           -3.26220129697077       -0.08120090282602       20.04816706486996
Au          -0.59062663185896        5.59388436975021       18.28916860102686
S           -0.42281230125894        7.09219738391352       16.40127475238105
C            0.79592485132459        6.41096261325627       15.40101306615552
C            1.30755168692723        5.11368045443592       15.53215550635847
H            0.92712317637600        4.45662033464604       16.30616768852651
C            2.28919505952454        4.67046789352528       14.66714006258292
H            2.68974953395792        3.66435505841326       14.76294661162300
N            2.79648434260762        5.41425278534795       13.68481546766836
C            2.30759584109974        6.64776128724366       13.53893514182441
H            2.72752166363714        7.23688855841044       12.72778222768601
C            1.32782361989195        7.17915537495514       14.35497794983741
H            0.96776272911066        8.18908795442325       14.19782125605620
Au          -0.86157691886856        6.66834057312100       21.01261239529060
P           -0.48492261015750        9.00462793803839       21.25131618143228
C           -1.87671598693094       10.02453899598163       20.68336095655655
C           -3.07086265133720        9.97047254368727       21.40946017804941
H           -3.10610118589980        9.42277920721401       22.34521228865831
C           -4.20745995208552       10.60914701157229       20.94378973019024
H           -5.12327847492060       10.56715193170600       21.52225603507563
C           -4.18019940920023       11.28972293226915       19.73291900716135
H           -5.07372863851482       11.78088320486048       19.36475921418101
C           -3.00520643664135       11.33495624966042       18.99583148275369
H           -2.97883145065850       11.85836447554038       18.04665885640352
C           -1.86096558232370       10.70832628408206       19.46628625286857
H           -0.94926880608931       10.75139370469854       18.88145473017058
C            0.95282921123159        9.61778685914122       20.32160388513440
C            1.13941599334046        9.13340810989526       19.02285349366579
H            0.41806260229144        8.45041696520172       18.58555747419530
C            2.24844675822140        9.50664665456813       18.28257535922454
H            2.37648812426713        9.11893211332871       17.27817791814925
C            3.19686334705551       10.35756359440900       18.83397203866846
H            4.07404948238188       10.63733377943956       18.26165778428275
C            3.02418414039628       10.84209035879963       20.12359399137877
H            3.76392500649414       11.50491395523808       20.55859548895828
C            1.90856793908104       10.47914978078193       20.86395502523267
H            1.78128908425694       10.86366982384846       21.86981800648996
C           -0.19135844687501        9.46946091027586       22.98194244011576
C            0.39951708673171        8.49858229158208       23.79425862441163
H            0.67506705859226        7.54016967520771       23.36994838071045
C            0.63499268319853        8.73594398969543       25.13755256802840
H            1.09110165534406        7.95609023500802       25.73894860563211
C            0.27770643183035        9.95769271646954       25.69205278730963
H            0.45430088879454       10.15200117148540       26.74386503849133
C           -0.31160186370052       10.93285111176682       24.89595619316868
H           -0.59131767299656       11.88763266343109       25.32747830945430
C           -0.54770475006672       10.69445246315102       23.54955474505939
H           -1.01479585068990       11.45920118096056       22.93894144039802
Au          -3.26294447252594        5.39462695732596       19.74572815081964
P           -5.21592381927470        6.40645796288185       18.80778527795297
C           -6.32006574984759        5.19160812290976       18.01668740701913
C           -5.77556034142780        3.97268776494295       17.61100029635595
H           -4.71535565337698        3.79192769519764       17.74682593862573
C           -6.57378574989872        2.99018765316899       17.04835152188394
H           -6.13616662488864        2.04344717979048       16.75256885969632
C           -7.93141241726223        3.21662694758073       16.87240548783731
H           -8.55849430957938        2.44878423949647       16.43395568004906
C           -8.48600981243633        4.42658929216584       17.26837258215865
H           -9.54732675283261        4.60621635791569       17.13763579424482
C           -7.69010207001137        5.40552597221344       17.84276185059385
H           -8.13839092735964        6.33695923186104       18.17023862638625
C           -6.35125549443860        7.23918301022105       19.96272300915825
C           -6.86462661296439        6.47317298512563       21.01510094118958
H           -6.60627918111666        5.42168417717195       21.08915282709625
C           -7.70313015643355        7.04334234315191       21.95898227395926
H           -8.10819238321065        6.43487256121430       22.75993978654206
C           -8.02802368645591        8.39277859959108       21.87505550193104
H           -8.68317538782779        8.84008337255591       22.61380222638934
C           -7.51021265565101        9.16481854534554       20.84452579613714
H           -7.76216607105644       10.21719767223760       20.77517325485782
C           -6.67579759796631        8.59349702493685       19.89361424060309
H           -6.27799187379260        9.20366421228437       19.09048239008987
C           -4.84922953798209        7.62491265345737       17.50692587205968
C           -5.77532118416231        8.04808410650895       16.54993624257206
H           -6.79278048246666        7.67419857837723       16.57722864740332
C           -5.39571874759108        8.93511038669753       15.55455061833243
H           -6.12272022156795        9.25733423045958       14.81732499062418
C           -4.08706748752978        9.39880325767207       15.48883188040471
H           -3.79229945409679       10.07829604168372       14.69738038301764
C           -3.15777826066222        8.98174713061818       16.43164893092864
H           -2.12611340130557        9.31034057667268       16.37599384991736
C           -3.54178344320280        8.10819216925919       17.43632639312732
H           -2.81356047920661        7.78180948783039       18.16920051453054
Au          -1.84741655896964        2.90071786460514       18.24303564130848
P           -2.35755272122306        2.21583842346951       16.01636667727856
C           -3.27004279146498        0.64624552069222       15.89815750728532
C           -4.03497144386557        0.26250861809530       17.00216300454642
H           -4.07627510350877        0.90952370305723       17.87123805618624
C           -4.72108532809531       -0.94158585729768       17.00580437081954
H           -5.30251918991451       -1.22730977707761       17.87458796040545
C           -4.64470042064319       -1.78313372172398       15.90363676347762
H           -5.17238763391948       -2.72994901208435       15.90601939491242
C           -3.88383020309458       -1.41421108923329       14.80151455810758
H           -3.81930930553929       -2.07221116042138       13.94202367051490
C           -3.19926695141407       -0.20816682750411       14.79605139712955
H           -2.59973087165341        0.06879466810037       13.93584479292014
C           -3.35670573811446        3.43236345999730       15.10587156199267
C           -4.56447593053966        3.13762989180069       14.47161387947974
H           -4.91893709018366        2.11374776893185       14.43059715934281
C           -5.31853846359086        4.15054480506473       13.89610327622595
H           -6.26029200111669        3.90982493746848       13.41530056996380
C           -4.87524504152048        5.46537942378830       13.93845988913993
H           -5.47130391748570        6.25492637427749       13.49467035321440
C           -3.66739774808226        5.76661676512626       14.55433434196038
H           -3.30688685077503        6.78849188100449       14.59054275867397
C           -2.92021727318785        4.76035993415401       15.14063127795807
H           -1.98978666354096        5.01379740216020       15.63786904285068
C           -0.89902873337647        1.96496200906739       14.95803324673114
C           -0.83167654304408        2.35575939515101       13.61972901094648
H           -1.68683241933117        2.83032161130885       13.15205293696791
C            0.32762478123484        2.14767331496675       12.88754759625331
H            0.37124527654152        2.46092714436424       11.85064505981671
C            1.42979060639835        1.54404944806422       13.47753493702871
H            2.33377123678367        1.38173436117690       12.90210654420701
C            1.37575469693580        1.15896058976368       14.81131213492970
H            2.23672728993525        0.69725961849033       15.28154597459950
C            0.22295037986489        1.37721745192924       15.54672933297039
H            0.18570370607414        1.09323525891115       16.59307274758896
Au           0.42178562990853        1.92528288017654       19.95037201320399
P            1.78801424957531        0.12825837939193       19.23896938342390
C            0.93564370339523       -1.01027265347673       18.10178297450492
C           -0.43627945689657       -1.19048461841040       18.30124849919824
H           -0.92247101361545       -0.69293826581399       19.13353200194565
C           -1.17820133818677       -1.98209153988140       17.44072412419164
H           -2.24202411413451       -2.10818982169131       17.60441114300669
C           -0.56171815478913       -2.59802818899260       16.35983419470221
H           -1.14516869915057       -3.20469992558725       15.67665373726689
C            0.80007422693503       -2.42783951033910       16.15156746876122
H            1.28469197471743       -2.90524453165999       15.30724486659370
C            1.54662989247293       -1.64064410062659       17.01617096356631
H            2.60789940698573       -1.50656744054222       16.83893267695039
C            2.44722351776924       -0.94223802709538       20.55578684945170
C            2.70955900956692       -2.30403871997295       20.39657062474643
H            2.53202111577517       -2.78067103776580       19.43889520697443
C            3.18760931316920       -3.05328534808010       21.46217156395289
H            3.38434662901768       -4.11112721492304       21.32852933284580
C            3.41056400295431       -2.45483070222533       22.69490850082287
H            3.78269401200432       -3.04416011189195       23.52508954300391
C            3.14691865040831       -1.10231331720901       22.86588927589285
H            3.30819068076925       -0.63145904636910       23.82860205724111
C            2.66025181199357       -0.35451685089624       21.80595631283526
H            2.42912540721135        0.69585695809517       21.94644465287036
C            3.26736572596992        0.66475274461280       18.32187877780566
C            4.43626693439508       -0.09290509160203       18.22341877979240
H            4.49296337494652       -1.06498269842798       18.70063260408268
C            5.53389773258034        0.39848344597274       17.53267089248017
H            6.43675100711966       -0.19807525378124       17.46521940878383
C            5.48409733964750        1.65337539183764       16.94047752774906
H            6.34816721567163        2.03907423672289       16.41186347262214
C            4.32974270768482        2.41811497984523       17.03752209349370
H            4.28970894710573        3.40381837351729       16.58866398812443
C            3.22992214033490        1.92533791344150       17.72111244730733
H            2.33183850916104        2.52770966128269       17.80330007424161
Au          -1.17917079891826        2.12755962815947       22.47579349471345
P           -1.42628750696633        0.41479623013908       24.11856679902020
C           -2.86916779808275        0.53099083958515       25.22149778824608
C           -4.09680317837436        0.88347895489266       24.65379781799450
H           -4.17076110186548        1.06155418482565       23.58510944945011
C           -5.22815762762373        1.00705881098191       25.44339261574137
H           -6.17389889999008        1.27777188136898       24.98784260917067
C           -5.14903740981559        0.79201730689831       26.81286542170931
H           -6.03337050167301        0.89324756338937       27.43183057219980
C           -3.93254880207981        0.44895209430122       27.38803507155686
H           -3.86543824658162        0.27805653100192       28.45677209016930
C           -2.79865471424988        0.32040724885193       26.59992764399835
H           -1.85304079403883        0.05484797698761       27.05895366258158
C           -1.53115055587856       -1.24715672126177       23.39126909214794
C           -2.46281099231018       -2.21263603016771       23.77415961324077
H           -3.16678186604559       -1.99919090602458       24.57035479386433
C           -2.49690705009904       -3.44298171048526       23.13509239519622
H           -3.23468627133130       -4.18048494438551       23.42911352808102
C           -0.67646092645623       -2.77026837608094       21.71724684049539
H            0.01850923198483       -2.98092136395941       20.91157286554159
C           -1.60071220609552       -3.72849071950950       22.11434629869220
H           -1.63209610483395       -4.69130981373309       21.61774095703811
C           -0.65122082467467       -1.53602601917801       22.34403986102352
H            0.05618806832950       -0.77920141849964       22.02215974090403
C            0.00414675002941        0.34146984570691       25.23828959684751
C            0.80462821767688       -0.78857207164765       25.40826079792794
H            0.54527312024559       -1.71622713255307       24.91056010649429
C            1.93865594745362       -0.73042997245399       26.20680132774988
H            2.55331716213073       -1.61539944063810       26.32952181110661
C            2.28449004267044        0.45135377340097       26.84746444306219
H            3.17673510717484        0.49733820754747       27.46093979344614
C            1.48971697282849        1.57935655256569       26.69063744716127
H            1.75739025982626        2.50609345310739       27.18482830874933
C            0.36635270987169        1.52840682843901       25.88347857847305
H           -0.23746195310983        2.41878619665451       25.74248905947821
Au           1.50334194936135        4.71381921268067       20.18179008860115
P            3.81289112284968        5.33390426619972       20.22415300741346
C            5.00999323804908        3.96144486068819       20.24801693294872
C            4.59802106756918        2.75616452363266       20.82036102968779
H            3.58808838728525        2.67155517467398       21.20637785404358
C            5.46101156214509        1.67507571712329       20.89415885875575
H            5.12683705398402        0.74676933469540       21.34366667669352
C            6.74670697888748        1.77946155049698       20.38111585919807
H            7.42205986161421        0.93308029708046       20.43222147415427
C            7.16179381138199        2.96684488637320       19.79319489153825
H            8.16249953241075        3.04888794549884       19.38387033014342
C            6.30171890691075        4.05250742578744       19.72718120093899
H            6.63618751544357        4.97589443420640       19.26770332462756
C            4.42700415632835        6.44622950169430       18.92035781653106
C            3.88011762475938        6.32014029233703       17.64155254549734
H            3.10115492169591        5.58684724848008       17.46123417067656
C            4.31794987956968        7.12700736761097       16.60309080629296
H            3.89069586991344        7.01440487263365       15.61372102690902
C            5.30140681693850        8.07989330247510       16.83312304159311
H            5.64310522356385        8.71373994872018       16.02280020698442
C            5.84239017844858        8.22440322249813       18.10415062851720
H            6.60725102660476        8.97069307106802       18.28817382036370
C            5.41054593475554        7.41309491545717       19.14254761595098
H            5.83443455837946        7.53457229524118       20.13308564769083
C            4.16249824467263        6.23013732870838       21.76636306924062
C            4.93561297114659        5.70895715765576       22.80402145276928
H            5.42939450092203        4.75155116289494       22.68560602265441
C            5.06919777789322        6.40544188879768       23.99621469834180
H            5.66640105536636        5.98511306668223       24.79730183688717
C            4.43178650469939        7.62530060009325       24.16981626406572
H            4.53217331269529        8.16388026011958       25.10517980674061
C            3.65593232381043        8.15118322200287       23.14436127538712
H            3.15170739473686        9.10218257596041       23.27507167870860
C            3.51349022404632        7.45454279925495       21.95665673530922
H            2.89237521669319        7.85747468398944       21.16396829981887
Au          -2.65299575171566        4.90022630008314       22.58756451029342
P           -3.92959244346695        5.50057642950921       24.52129308126932
C           -5.63959158624751        4.88887781908909       24.52098240587433
C           -5.94903836496377        3.86914549790471       23.62090190150220
H           -5.17238403099440        3.46774890163574       22.98137697609227
C           -7.23353833990168        3.35740154482208       23.53205297553977
H           -7.43602224626683        2.56281958946552       22.82137872042502
C           -8.23515985919698        3.87036080310708       24.34457455617610
H           -9.24480961487141        3.48135476561195       24.27776088955712
C           -7.94175644927212        4.88727396240642       25.24605203737716
H           -8.72263708115893        5.28838798012006       25.88269170747990
C           -6.65426765521707        5.39484643076134       25.33841616492931
H           -6.43700272064577        6.19191902289120       26.04082539514598
C           -3.15672211738244        4.83637739257957       26.02482737163557
C           -3.83302064927362        4.11630054791192       27.00957059754596
H           -4.90278117892420        3.95797546558297       26.92979224418322
C           -3.13825629206458        3.59122437701998       28.08978459538168
H           -3.67418516675337        3.03083724630959       28.84776993000429
C           -1.76585229198986        3.77173122665399       28.20129160608607
H           -1.22989855924100        3.35184699865348       29.04484363498483
C           -1.08272032315220        4.48133593362426       27.22254601786643
H           -0.00927189916597        4.62836939623815       27.27924350636771
C           -1.77421980731012        5.00217553051089       26.14222036573546
H           -1.22685781825890        5.52687396752466       25.36827770752674
C           -4.09240534012983        7.28644596163945       24.84020820205127
C           -3.20432179795745        7.98948959236546       25.65620409349670
H           -2.44088649243307        7.45849641637581       26.21315876957155
C           -3.29269372127402        9.36848773359750       25.76883911002075
H           -2.59499734478011        9.89924807837154       26.40680168320399
C           -4.26545489411022       10.06893387536520       25.06911221258947
H           -4.33299344508398       11.14692553143011       25.16048504024938
C           -5.15092449049701        9.38076691183678       24.24905067294012
H           -5.91944306080855        9.91695089759956       23.70297159001017
C           -5.05563671469056        8.00434149249279       24.12485578030315
H           -5.74072222535129        7.47689164043314       23.47038534722661
