273
 energy: -433.019694644204 gnorm: 0.000048026361 xtb: 6.5.1 (579679a)
Au           0.01234989513291        3.25643554267331       19.49930388422070
Au          -1.84605669574577        5.28112391167340       18.35089175845953
Au           0.84772701846573        6.55216423614166       18.03340029013168
Au           0.08050162737911        8.45328278509687       20.10398033481972
Au           1.63608391742494        6.89856108183269       22.01190403947188
Au           0.74173971350965        4.05103949369361       22.22033608347835
Au          -2.21781676056580        4.21087102741883       21.15650004850618
Au          -2.47402769931064        7.15205013031766       20.59394921698158
Au           2.38610642566087        4.95453632785359       19.95082309780297
Au          -1.01425358637275        6.24726351892165       22.96829525020443
Au          -0.17448410599955        5.82317513711747       20.36234847768485
C            1.87295189808349        1.24302612920854       17.30482362801373
C            2.42471091757770        2.48759325121912       16.99428686185118
H            1.93300948321844        3.39027641793017       17.33976340646618
C            3.60012836619972        2.58048857654867       16.26754058126388
H            4.03071377937054        3.55361462709010       16.06077955811327
C            4.23258785591728        1.42699737520416       15.82525043728505
H            5.15505663469403        1.49606316452410       15.26059543967326
C            3.68830768431863        0.18327764099570       16.11821213054893
H            4.18298610249068       -0.71940493235974       15.77819337644350
C            2.52132899072023        0.08792774870121       16.86019027593019
H            2.11662261409042       -0.88749802707266       17.10687313947571
C            0.62024456836794       -0.28901857395553       19.36680967836257
C            1.48208278082960       -0.16876307414112       20.46128891560610
H            1.99637686804407        0.77045411932310       20.63836105687370
C            1.68851145364097       -1.23956336867441       21.31601595451076
H            2.36463966431379       -1.13691280036803       22.15675918801473
C            1.02721620079296       -2.44140834754235       21.09854485649077
H            1.18319759455197       -3.27602148908368       21.77205873790043
C            0.16753495786912       -2.57074424411055       20.01705320552872
H           -0.34754612828990       -3.50799077419176       19.83974244833232
C           -0.03603028923293       -1.50259099813355       19.15451362528512
H           -0.70363180993885       -1.61737095927696       18.30826511478529
C           -0.97225222169919        0.70938776162360       17.23721221632471
C           -0.97114873741127       -0.15683805890709       16.10369412850084
H           -0.09640215513853       -0.61957889100992       15.66628124560192
C           -2.31382821155847       -0.40056127696353       15.73263599006192
H           -2.64102636317013       -1.08379923236410       14.95985794264204
C           -3.15606673936879        0.31458410693778       16.61859514042494
H           -4.23682172144004        0.26934939625593       16.64535384700509
C           -2.33468074002218        1.00139035585929       17.53977288824587
H           -2.66807666309682        1.55945186442944       18.40475971706512
C           -3.00999746839303        2.78886141932287       14.34191205883597
H           -4.06802644832669        2.75388446629797       14.11813185218107
C           -1.98454070019906        2.13139188185762       13.62460921963065
H           -2.12504896863868        1.50435913303414       12.75396799720596
C           -0.73900787266279        2.52320558157060       14.17261611840748
H            0.23659245719390        2.24835503254041       13.79465492925412
C           -0.99017876607538        3.42519528539980       15.23012957463017
H           -0.24401899551482        3.97195212874944       15.79234163594673
C           -2.40125444995534        3.60977512755262       15.33678500338978
C           -4.87956897112385        4.40621759802845       16.55508259080894
C           -5.16992896366790        3.40042600545651       17.48231463667089
H           -4.36158177471822        2.93226459089372       18.03337032040864
C           -6.47640291069471        3.00337448857453       17.71216202089252
H           -6.68091144947847        2.21678375423544       18.42951467316585
C           -7.51943067447950        3.62522813739122       17.03792289743322
H           -8.54332275210187        3.32280563604475       17.22378591250979
C           -7.24577690578764        4.64105935926498       16.13279088646360
H           -8.05645185339341        5.13587619340914       15.61020500205042
C           -5.93632556744598        5.02994524244132       15.89049154394813
H           -5.73757086300183        5.82349228115969       15.17926169322337
C           -3.17067293384515        6.32893910984291       15.25207240751512
C           -3.46114170984442        6.22857976330969       13.88925263480833
H           -3.66516117995717        5.25798465510028       13.45103330839070
C           -3.48099510093160        7.36196051248617       13.09032971933234
H           -3.71373868229732        7.27188979849379       12.03551916677082
C           -3.20807052145944        8.60889579398940       13.63824046643860
H           -3.22346565885164        9.49276912824074       13.01134884374761
C           -2.91179685766801        8.71981392685697       14.98987225682249
H           -2.69675306811235        9.69032369701971       15.42252688762304
C           -2.89042680183122        7.58695069620689       15.78893137856850
H           -2.65009866386314        7.67407197163599       16.84313861521833
C            1.40321612875623        6.44966064142802       14.46497435338074
C            2.03409969097197        5.27985585228104       14.03353291747209
H            2.89051049990008        4.89839734257449       14.57772507279895
C            1.58341729690849        4.60940853189318       12.90733502183274
H            2.09503879019704        3.71318032282493       12.57506499680114
C            0.48314047741398        5.08547617254978       12.20639005792694
H            0.12889141184778        4.55983121590373       11.32731416602157
C           -0.16263705995368        6.23619637057099       12.63756734627921
H           -1.02433672286579        6.61090548422555       12.09681444298158
C            0.28924036195299        6.91197843331175       13.75991906200769
H           -0.22278023443543        7.81003029268088       14.08886058421628
C            3.72108640896169        7.08651453189801       16.06300072523721
C            4.32372471204682        6.83509659614298       17.29703251421508
H            3.70822297911198        6.75135838665916       18.18469394101289
C            5.69463609937348        6.67148195939879       17.40163208753865
H            6.13110300543246        6.44367138048439       18.36707527289947
C            6.48832912514677        6.77507733965458       16.26853411521562
H            7.56174455625003        6.64471413460002       16.34201099104460
C            5.90455056332942        7.03720146352515       15.03502040165429
H            6.52263360509234        7.11649159304048       14.14780485550610
C            4.53077454954113        7.18609024075488       14.92666993121442
H            4.08319325158598        7.37026461897147       13.95622314360502
C            1.59686982082189        8.99780966070614       15.67162270257034
C            2.32664715566159        9.91131550949716       14.85564774438924
H            3.25068138594470        9.69345752183820       14.33710420693409
C            1.57008087765666       11.09930033555078       14.73656899384533
H            1.82107802982146       11.94776373307364       14.11363103786306
C            0.37598510098360       10.94221520420452       15.48164854450684
H           -0.44397252145350       11.64687428095981       15.52735488315535
C            0.39285749034829        9.65417946434228       16.06234666177932
H           -0.40638759147327        9.19486059953593       16.62841690051895
C            2.07102736428475       12.34008015090788       17.99544702166989
H            1.47037774780332       13.24003443750092       17.99088988281965
C            3.33353392921772       12.18005106832970       17.37934693815077
H            3.86592203970901       12.94163410838492       16.82483846314416
C            3.82875810332962       10.89482278125939       17.70854028843596
H            4.80416079138533       10.50351075100692       17.45159816456490
C            2.87436151405116       10.25627818743765       18.53060515035054
H            2.99249850103124        9.29749821703907       19.01835737596064
C            1.77901185443481       11.14971298711521       18.72575254927082
C           -1.00758538518363       11.69064038900813       19.17432666254545
C           -1.98171959370164       10.95780333810956       18.49302551395157
H           -1.87151693096045        9.88228602807914       18.40132709891096
C           -3.09156755093707       11.58588960225809       17.94948112819587
H           -3.84018162079036       11.00190829119792       17.42545277731803
C           -3.24523407171685       12.95921436268837       18.08894160371224
H           -4.11407038508169       13.45313776625590       17.66972418425450
C           -2.28953475414879       13.69638751383589       18.77613653917778
H           -2.41207222076659       14.76697937554540       18.89334316373307
C           -1.17753856423778       13.06867559795131       19.31773881458453
H           -0.44137198834879       13.64960024488772       19.86205057092648
C            0.85693777271779       11.65831125931724       21.38313939540305
C            1.78274286446654       12.70106654084054       21.45240618484210
H            2.26340841156950       13.05972649110386       20.54921720752691
C            2.10141338670889       13.27256137994926       22.67568593563520
H            2.82653285622900       14.07715448178031       22.71886993915207
C            1.49908027671176       12.81474615326936       23.83992547064161
H            1.75531446912486       13.25827599856122       24.79506149374735
C            0.57397405836390       11.78109240678656       23.78019916203722
H            0.10482444579235       11.41549869625853       24.68606616336801
C            0.26224870406423       11.20069781131850       22.56232220397944
H           -0.44621620711990       10.38002108064288       22.52100503383780
C            2.73507439878612        8.84349105932389       24.77166423463271
C            1.42620444884029        8.65710525373216       25.22195297916072
H            0.78812088007754        7.92915216896186       24.73458623706300
C            0.92892604487196        9.39285606274505       26.28534464027489
H           -0.08710475118469        9.22444199934713       26.62311177379874
C            1.73541488949956       10.33733004069638       26.90706234950869
H            1.35148518410300       10.91818729769487       27.73773609443165
C            3.03598516190225       10.53905499576128       26.46200386177766
H            3.66609412600904       11.27735439033962       26.94501776357246
C            3.53847184473147        9.79571918397786       25.40459444524872
H            4.55676683662846        9.95526209877926       25.06806951091677
C            4.46870802791764        8.75924127488007       22.41170595936524
C            4.23059394528968       10.11724716780124       22.18382812537529
H            3.45325352538012       10.63015952887564       22.73936046623749
C            4.97744431834599       10.81339412409848       21.24634236912171
H            4.78333743781593       11.86747046527459       21.08079479618050
C            5.96074817421154       10.16098689601085       20.51426283548483
H            6.53929621037633       10.70578085191997       19.77690532786346
C            6.19493882561956        8.80819001392594       20.72387161635158
H            6.95569650245366        8.29303876433943       20.14862099016118
C            5.45098956931765        8.10827859076676       21.65994515595329
H            5.62611927813589        7.04739765184781       21.80030711838870
C            4.33529540119964        6.53543006099651       24.22900327517062
C            5.03951790347364        6.63071848001646       25.46574701973151
H            5.05429781839853        7.49497822110068       26.11666909710383
C            5.81637214559501        5.45990591403558       25.61963353355293
H            6.52526815766632        5.27398634577609       26.41591961371632
C            5.59050848300225        4.62723664606463       24.49657396968249
H            6.09757109203725        3.69556243759202       24.28307131498268
C            4.67369324039459        5.27952918172104       23.64316907041996
H            4.37191269971050        4.94345975703844       22.66038240490159
C            3.18325251395332        3.21905115859636       26.35239210601120
H            3.67611208867549        2.25692158195542       26.39897628037383
C            3.24040957822695        4.23232336062746       27.33573811925196
H            3.79314934713091        4.17901694750099       28.26451471810841
C            2.36351717958680        5.27558636558734       26.95010430185574
H            2.12743141375596        6.15658767194924       27.53202303430562
C            1.75900871939485        4.91012101528528       25.72792148607962
H            0.97264459435760        5.45252170652128       25.22036556316823
C            2.25040282722771        3.62450615475099       25.35112585967844
C            2.98756894276356        1.57647597888685       23.49029295787904
C            3.78627855928624        1.93124454649553       22.40112979893622
H            3.56353537187573        2.83063982912057       21.83971495763749
C            4.86713447432504        1.14764122863076       22.03089015591509
H            5.47825148420356        1.44519883647866       21.18682578751070
C            5.15658595493846       -0.00950461358171       22.74079217334905
H            5.99976915772861       -0.62728922591983       22.45416010787517
C            4.36142601382912       -0.37949873281196       23.81884900763492
H            4.58439899970117       -1.28427970545005       24.37289422616964
C            3.28191219679172        0.40661466870006       24.19522590655625
H            2.66333870202250        0.11105453948852       25.03536744627085
C            0.33151960182276        1.60582149183784       24.63688039980754
C           -0.26704914302761        0.68615862749188       23.76873342265816
H            0.11958719266660        0.57214935964957       22.76072960545116
C           -1.34633134133133       -0.07570534765106       24.18289295102443
H           -1.79849434278917       -0.78773222595808       23.50128863113137
C           -1.85350656874618        0.08107017332856       25.46704149408079
H           -2.70644487604848       -0.50534340331547       25.78872972742455
C           -1.27267584004402        0.99694710949466       26.33254065536568
H           -1.67038414555671        1.12525996390240       27.33276346376669
C           -0.18905202980874        1.75950228612456       25.92157989323208
H            0.25261250331005        2.47958999816000       26.60077721576335
C           -4.22268612194649        2.77696344215162       23.75140159572492
C           -3.52491963971692        3.66265217500941       24.57468653441414
H           -2.93144471780995        4.45329125607557       24.13206159465789
C           -3.58232483441435        3.54515039152723       25.95310052370450
H           -3.04132050125327        4.25168841283304       26.57166977423937
C           -4.32923836392404        2.52535644183145       26.52696492981007
H           -4.37884404298265        2.42771351363021       27.60527357065303
C           -5.00902398549748        1.62329784298246       25.71752763435366
H           -5.58515160001734        0.82079106927320       26.16415104254867
C           -4.95975951218918        1.74486964455394       24.33702448172986
H           -5.49190688970850        1.03623188473674       23.71191074439886
C           -4.34498523209056        1.40259887330595       21.21750955845713
C           -3.18418627137236        0.63731853364808       21.07035139875586
H           -2.23728738498885        1.03297660174200       21.42375153933601
C           -3.23206547255750       -0.61369138639529       20.47814166543915
H           -2.32401018298525       -1.19716031629355       20.37706083476253
C           -4.43949342330761       -1.11100888622106       20.00442371752561
H           -4.47641693345792       -2.08489531099128       19.53021513576412
C           -5.59682397084251       -0.35649671690763       20.13711279736640
H           -6.54114447422603       -0.74106057682829       19.76882601657776
C           -5.55297767760300        0.89137237785582       20.74240496687850
H           -6.46340697046020        1.47069526633830       20.84698337124785
C           -5.69230990757351        3.89873869256951       21.56100660254349
C           -6.98915473509039        3.72021101486106       22.12942583032764
H           -7.22873806515086        3.06038335099960       22.95271461542401
C           -7.91617021142332        4.45219213276491       21.35308881450416
H           -8.99055029214434        4.44640597450647       21.48130625635842
C           -7.20895877802382        5.10071712093453       20.31158604855289
H           -7.64699602426066        5.67249348730275       19.50408043063888
C           -5.84159751914560        4.77047570759822       20.44179253161516
H           -5.05237892699420        5.04109168866943       19.75252076040122
C           -5.14148730760602        6.70439241057395       23.35110913358687
H           -4.11675376349347        6.46545140324948       23.59966235703089
C           -6.27938018413664        6.34740786307265       24.10784245198050
H           -6.27132903094914        5.77820366398063       25.02794548380122
C           -7.41106061807149        6.95826657241720       23.51572041507217
H           -8.42118458572874        6.93636529118436       23.90343360147664
C           -6.97713032494749        7.69719134626253       22.39104822531880
H           -7.59526539027338        8.33713230913715       21.77532850312735
C           -5.56119091245336        7.55797875402446       22.28726945442835
C           -3.94748083905850        9.89517704942956       22.08686157788577
C           -3.52359609927507        9.76864860572940       23.41359437550015
H           -3.59154596933329        8.81256922185212       23.91976297639273
C           -3.00238188985946       10.85867710050108       24.09100792304930
H           -2.68044568736470       10.74499605503369       25.11968287720807
C           -2.88503450783131       12.08735749158425       23.45358233258924
H           -2.47170659957644       12.93839167182943       23.98248893379155
C           -3.28930997914142       12.21964573686590       22.13225068759244
H           -3.19130706524507       13.17260177044808       21.62402929240842
C           -3.81073215080671       11.13099224240061       21.45011450230651
H           -4.10936902203291       11.24285121359278       20.41398222561104
C           -5.44650926941690        8.94465408434383       19.77252639396469
C           -5.26418132855045        8.30180233326223       18.54656327538705
H           -4.52762742431192        7.50855739209526       18.46826274848630
C           -6.00654856394492        8.66636010945795       17.43482417296518
H           -5.84833140090855        8.15821566021524       16.48991601903299
C           -6.94513612164419        9.68451202400809       17.53502150733451
H           -7.52424653606904        9.97647835790620       16.66660706993201
C           -7.14012457331063       10.32863498803207       18.74992471377664
H           -7.87384972657352       11.12246931335490       18.83061407532537
C           -6.39858386539187        9.96318103945371       19.86318682587289
H           -6.55539720905625       10.47419032450618       20.80626685414746
Cl           4.79519483610453        4.55257544780827       20.05562410335271
Cl          -1.96650102058042        6.94552854908937       25.11559266300279
Fe          -1.89259927474643        1.61804350436352       15.62244613412217
Fe           2.01502558941172       10.72766902427343       16.72187228305123
Fe           3.80950467109318        4.98163014375643       25.49450253740765
Fe          -6.48495707433293        5.71787671068545       22.14584092152900
P            0.37848066678763        1.19635980749385       18.34007705157543
P           -3.13426794082377        4.89545609804832       16.37729433502282
P            1.91473167453370        7.24873306720796       16.01934457667502
P            0.41582207577418       10.77989894279958       19.85390793836046
P            3.31391434262996        7.78505832326346       23.41648699747943
P            1.62120273947509        2.68307366469678       23.94494668334892
P           -4.14257118109931        3.05396709737675       21.95719837941004
P           -4.41568081345032        8.39906045214836       21.16622446049763
