274
 energy: -419.207616790703 gnorm: 0.000041834400 xtb: 6.5.1 (579679a)
Au          10.89128486831689       10.97903374945943       10.85878961394380
Au           8.27043283037314       10.33437844176844       10.45420345639966
Au          12.48758337285522        9.40569379642535       12.33183409056275
Au           9.45660416612285       12.97299143984401        9.69765933473999
Au          12.39473229715666       12.44838780838194       12.42842777363445
P            5.90171268158561       10.02252922557981       10.26743574878543
P           14.24406075351822        8.15234705224802       13.34879944077080
P           13.75445561367335       13.77131483777848       13.84864517700487
C            4.02223268130175       10.42605570766097        8.17554296360738
C            3.60808712355245       10.31546855635288        6.85650234061256
C            4.42801622249820        9.71229831388169        5.91234068709028
C            5.67434856282270        9.22750891780680        6.28622800354409
C            6.09446377849835        9.34797960484983        7.60021506866874
C            5.27074071535018        9.93495480542875        8.56360153047614
C            6.03206135405617        7.92280706238416       12.05880035813963
C            5.60287799190840        6.77228818678266       12.70066707078644
C            4.38179238460002        6.20569604679824       12.36031362461674
C            3.59600054174710        6.79309193943639       11.37746504352464
C            4.02452557722306        7.94442427519279       10.73427718439281
C            5.24875867672356        8.52672752510060       11.07254495593475
C            5.45182902972576       12.69467369951793       10.74048382688630
C            4.85122771366649       13.80190684529992       11.31417476423854
C            3.77817770487107       13.63677638451025       12.18104263507050
C            3.30655600173017       12.36265730577354       12.46248069386034
C            3.90190528818680       11.25211094667969       11.88179748908199
C            4.98287889495154       11.40527333671307       11.01249231040862
C           16.33032456956996        9.04939258969298       15.06037352785852
C           17.37895163390982        9.89948766947529       15.37952018300861
C           17.74232716002172       10.91901177747254       14.51116761929812
C           17.05168616123670       11.09007830240983       13.31845523302178
C           16.00142461008427       10.24594014593553       12.99898945504613
C           15.63208412737799        9.21044359706149       13.86274142122766
C           16.37884958007240        6.62271825720967       12.28743317310346
C           16.92282190666299        5.72576277950286       11.38121067732540
C           16.12957161896703        5.16507067376092       10.38921620236021
C           14.78661680707463        5.50480057492109       10.30384214071706
C           14.23998922741382        6.40002394610477       11.20868642707416
C           15.02607752499973        6.96683274299472       12.21374885345737
C           14.48361385625129        5.98881243491287       15.16832359856976
C           14.12040323493194        5.29023558427463       16.30999827311888
C           13.10653791584621        5.76870652875569       17.12884342729407
C           12.45142629687026        6.94811844347283       16.79947450586594
C           12.80931189834336        7.64595742287413       15.65689171551115
C           13.83563358726478        7.17908304113213       14.83200111608016
C            8.68684903835757       14.74453491250851        8.91541294696083
N            8.87467232148061       15.88941341092334        8.97605992254724
C            9.05887684456665       17.29976854261394        8.94261885637372
C            8.63867119569491       17.81949462501188        7.56868193456931
C           10.51982923316520       17.60884669382500        9.26832710526281
C           11.80467521754763       15.71387219224743       13.79276597013074
C           11.07296027369316       16.79859658300551       14.24791050416216
C           11.39771565612654       17.39291773890337       15.46021613634971
C           12.45217804286200       16.89488081959990       16.21312471994597
C           13.18433576565333       15.80755977135072       15.75960022294574
C           12.87296225510006       15.20761224416537       14.53837388723732
Au          10.42900155278804        8.33323173799031       10.29235815268568
Au          10.29598702184897       10.46898834169073        8.23527075770278
Au          12.41516682209878       12.71455151283231        9.42383261192398
Au           9.37679353809713       12.27261836196186       12.62417351189906
Au           9.70869788160489        9.33526564379913       13.01537283550837
Au          12.96856720790593        9.82476347624662        9.41343665480971
C           14.43059563104004       12.90021583715654       15.29706398612328
C           15.19233343034121       14.49393260489807       12.99974233173471
P           10.19816851459625        5.96190190513755       10.07656306572283
P           10.09627714828898       10.26842300628537        5.86149671068368
P           13.48758078226561       14.33164185300791        8.06538641251953
P            8.08445765924973       13.32711583974642       14.35125394000247
C            8.83328038530303        8.48691102730367       14.72251878433626
C           13.74890237028564       11.75886808637742       15.72811683593890
C           15.57457804400195       13.30156042657560       15.98984411957921
C           15.62719771750858       13.86857922258579       11.82834442751245
C           15.85668049432037       15.64240579739290       13.43629310808421
C            8.48678016522531        5.35911319438380        9.94982222138934
C           11.04842118207130        5.26729680070688        8.62994037958939
C           10.88005459419395        5.07756785144745       11.51342365449573
C           10.03681124362550        8.53668540526432        5.31195410953547
C            8.57982092711447       11.01481584410896        5.18733190275243
C           11.45419031986965       11.00675167890911        4.90619814024355
C           14.11848294268555       15.75082807676995        9.01472558920673
C           12.36747906266735       15.08292918282335        6.84088202849542
C           14.89885558892189       13.73221352876623        7.09265420634709
C            9.07266765965638       13.86806587118437       15.78241490746860
C            6.84198268646617       12.21584855311469       15.08840447120532
C            7.13968462494183       14.81192810333555       13.88455499286014
N            8.88661364619814        8.64316404170529       15.87273289734795
C           14.18141673720640       11.05049142697381       16.83796452297215
C           16.00487178814007       12.59315883703853       17.10189338558966
C           16.70840558239574       14.36483395313552       11.11776640867764
C           16.94222762511686       16.13453325962496       12.72730944244849
C            8.05555367777356        4.14331402690627       10.48433793616018
C            7.56368542582669        6.16882968247040        9.28438290667481
C           12.07248202067360        6.02659347218996        8.06090483372430
C           10.72407497672287        4.03508910504056        8.05513074665041
C           10.51525629839056        5.54179307607941       12.78123179264921
C           11.80494603836382        4.03669289171692       11.41914593604472
C           10.64099887861697        8.07333710896480        4.14164183277702
C            9.36436552679021        7.62561155670563        6.13020832611342
C            7.94602823704323       12.01142989089689        5.93252746895795
C            8.01790312832874       10.62279249727905        3.96966165202766
C           12.75772787166534       10.62632700636277        5.24143035335149
C           11.26756490442799       11.98304256018182        3.92553801442836
C           15.20207247219547       16.53467226123598        8.61388964433998
C           13.47699516961358       16.05356788899439       10.21838354434315
C           12.53771517662277       16.37170035382984        6.32836478858869
C           11.27968277702060       14.32451913853046        6.40395080783728
C           15.32118540232003       14.31379753453416        5.89418775784103
C           15.56927807690732       12.60313157587378        7.56860633941851
C            8.73282083480442       14.95084491437017       16.59611875849912
C           10.23705609986878       13.15040607961486       16.06749233338860
C            6.35627571541521       12.35536347632465       16.39159561998471
C            6.36128889833022       11.16748469416174       14.30163764460679
C            5.91375430592877       15.16633524747665       14.45116808247252
C            7.68408870703174       15.62681132901977       12.88827393076331
C            8.83954923428879        8.78126134419172       17.28765537866678
C           15.30780158663097       11.47218827530703       17.53192679875522
C           17.37148065800938       15.49743943664762       11.57063044590494
C            6.73404080441572        3.74731630106698       10.34130352406810
C            6.24723449238567        5.76706791875557        9.13236631426093
C           12.76966969294226        5.56869873733729        6.95553555137055
C           11.42016590887456        3.58005772265701        6.94522753064131
C           11.05623787572979        4.97948081955625       13.92437899646679
C           12.35001860683657        3.47736141136548       12.56584274942465
C           10.56162263688654        6.73164829325822        3.79895096233947
C            9.27492688246751        6.28916392719677        5.78036362630056
C            6.78447167637428       12.61067463376136        5.47204610044369
C            6.85461672079512       11.22192726058549        3.51082319861663
C           13.84454003475876       11.20235621727697        4.60701811848132
C           12.36006912776813       12.56440931085634        3.29880002472843
C           15.61580410362374       17.60661618169808        9.39090316893355
C           13.89040438906628       17.12500991638355       10.99321610274960
C           11.65122827473669       16.87499248143176        5.38749528948768
C           10.38650881012745       14.83297009576996        5.47517131087258
C           16.39955905691566       13.78246428510957        5.20303889648989
C           16.63691312465881       12.06557062640867        6.86875303040015
C            9.52995050171314       15.29112257095233       17.67887658209013
C           11.02975474058584       13.48917215098755       17.15223849564879
C            5.39765874099656       11.47991334991921       16.88034060582372
C            5.41175482650762       10.28692202178624       14.79384535069838
C            5.25730878409879       16.31698945989630       14.04022365230989
C            7.02711816443111       16.77693338963356       12.48163045542669
C            7.45037837544678        8.37367297625303       17.77606315388475
C            9.19264608625960       10.22351504322588       17.65002455794535
C            5.83016123989904        4.55310598901083        9.66221180080047
C           12.44354991292692        4.34200762374186        6.39439183157383
C           11.97954648076158        3.94674811686561       13.81776069768616
C            9.87647671986251        5.83942925441557        4.61215675036805
C            6.23692961207044       12.21588255338055        4.25869339750822
C           13.64895454822521       12.17759711435232        3.63787335525290
C           14.95986795470803       17.90690948264302       10.57702305817561
C           10.57471735535997       16.10839711515611        4.95870523699981
C           17.05778099538238       12.65836659176415        5.68593841687513
C           10.67483021387630       14.55933471768389       17.96263756750875
C            4.92209017396376       10.44564739684619       16.08352790602497
C            5.81234638056171       17.12535920112332       13.05760488186778
H            8.40765581193450       17.72745874759363        9.71770979530890
H           10.82406799007964       18.23845325396610       15.82118191161491
H           11.17820837717376       17.15710222550295        8.52691675478862
H           10.67265832595573       18.68679084287225        9.26739247629828
H           10.77524227013487       17.21568811902625       10.25150529608843
H           17.97344611628634        5.46787475721992       11.44737216925900
H           16.13844905677104       14.16372093619142       15.65290006007252
H           14.16501487956969        5.08135633472498        9.52320951615569
H           11.54123756785340       15.24112760825702       12.85196899755468
H            7.59745100397892       17.56617636278007        7.37499767809929
H            8.75260743904939       18.90186229367525        7.54102228920708
H            9.25988340633734       17.37676628387917        6.79099771016435
H           15.10174678469377       12.99065996182085       11.46758571307439
H           16.55946887517063        4.46965268752808        9.67799059331463
H           14.63281720084280        4.36907283024289       16.56186387185837
H           13.64300218282659       10.16454944938918       17.15592361184674
H           16.89277287137691       12.91640442687497       17.63267785961867
H           12.28670160811656        8.56030791532591       15.39371520935215
H           17.00892788775094        7.06642649041435       13.04998340953934
H           12.87648161275471       11.42076205570799       15.17807140496378
H           11.65721290980713        7.32393036848547       17.43548644170449
H           15.27221298868824        5.60463291190957       14.53146569432655
H           12.70356041533948       17.35160580719160       17.16334789961446
H           13.19209922314118        6.67127803404328       11.13443895883686
H           10.24369685764766       17.17559163127392       13.65957840508174
H           12.82386036874172        5.22168578377376       18.02052336399893
H           13.99385911701684       15.41634854855703       16.36517983420722
H           15.51569195082373       16.16182278807903       14.32471730909570
H            3.40972819513978        8.39012754856211        9.96045894118580
H            6.29849444475090       12.82447460795752       10.07393412623647
H            5.22586845742972       14.79492488703788       11.09210412928959
H           16.05247259076236        8.25786057263764       15.74688814705159
H           17.91320314579094        9.76433299379283       16.31286839507120
H            6.32462037237882        8.76487221786494        5.55232656351039
H            2.47058227033790       12.22990911141273       13.13947374506868
H            6.22596335541555        6.31444652367070       13.46063550539854
H            3.37745439187571       10.90177722269145        8.90579068855935
H            3.52554350841238       10.26105955473206       12.10809934610412
H           17.33032227682761       11.88643609725178       12.63782261022147
H           18.56080992527405       11.58269158094462       14.76410041681715
H            7.07739000939390        8.99141575484014        7.88868663230242
H            3.31397408610875       14.50243125627560       12.63890840320170
H           15.45909376396101       10.38456661176728       12.06921156998153
H            2.63826986528021       10.70189689148075        6.56516640691515
H            4.04555307004240        5.30282030157993       12.85630996220397
H            2.64477198241878        6.34985440902564       11.10670186043280
H            4.09964326162715        9.62664147470153        4.88317857599399
H            6.99278982869573        8.35671864498598       12.31549626378211
H           16.72185142262937       14.24441799662432        4.27701215106821
H           15.73034283003811       16.29983262605433        7.69685640173742
H           15.64856577056277       10.92047438438500       18.40007553570256
H            6.72857879756207       13.15194727712916       17.02587676004313
H           17.45121493368837       17.02537806953369       13.07665748119339
H            8.91537797567962        7.97451814739166        7.05409379960824
H           16.45812709438116       18.20819731738568        9.06961599202980
H            9.80221015785950        6.35570991909201       12.86617324208235
H           13.36616465854267       16.98405644044272        6.66595618020632
H            8.36572253984420       12.31054862395955        6.88744123161951
H            9.92389419485905        3.43543090998886        8.47447025311111
H            8.62723588765561       15.34929965312527       12.42830805019480
H           12.20101244885013       13.32429884028324        2.54227459049424
H           13.38387625824727       17.34217224780283       11.92719828450903
H           17.12321702977445       11.17194576350873        7.24317663350345
H           11.93046375613716       12.92249834978718       17.35973589943434
H            5.02064258752217       11.60553877884905       17.88868368009168
H            7.46260162090374       17.40364175471743       11.71097362180183
H           11.16092476269396        2.62328124359218        6.50674498157863
H            9.59479722676116        8.09918583323267       17.70227178978207
H            7.23829549598333        7.34586578507654       17.48542061757666
H            7.41084966300047        8.45193284662738       18.86121754183363
H            6.69188506135217        9.02582540166595       17.34468630498640
H           13.07107486308906        2.67286046519403       12.47879323216861
H           12.10280178945771        3.66466025311799       10.44567444592926
H           12.65240585810136       15.43144039825793       10.55164922311132
H           17.02686202311134       13.87125880476130       10.20651845186428
H            8.49212986005499        9.84386656841022        3.38320844177469
H            7.84557565940761       15.53431712082591       16.37793128244112
H            6.73728034792367       11.04447385044399       13.29169080426868
H           13.56338490278327        6.18300100955010        6.54275795411857
H            4.30806653796786       16.58310135507214       14.49046823896979
H            8.47252179634165       10.91306839067893       17.21046178622132
H            9.17968261440942       10.34033483363682       18.73239579214995
H           10.18674441124014       10.46965587030130       17.27908556558419
H           11.80073994846983       17.87169010838761        4.98884210516356
H            6.40903044831914        2.80257162882991       10.76154799478157
H            8.75460369925873        3.50928813232633       11.01772548685242
H            9.54187150002852       14.23317821932852        5.15511025272343
H           11.18013670621425        8.76256907277159        3.50201713466339
H            5.46581228331135       14.53692846745067       15.21147636880707
H           10.52266037636141       12.32374871650077       15.42483320164204
H           11.03806624865760        6.38172264766294        2.89051521062397
H            6.30319570506321       13.38070768109792        6.06437786610887
H            9.25567846575746       16.13379186960930       18.30285813809250
H            5.05494744419259        9.47533056565067       14.16970702392014
H           14.79822116939574       15.17488184989360        5.49378022037877
H           12.32910689570211        6.99150232625044        8.48439345037638
H           18.21578197006841       15.89004632052005       11.01633561036815
H            7.88624375852117        7.12666702725779        8.89065576565267
H           10.76580234603062        5.35387396391387       14.89982019823110
H            5.54504839776895        6.40650459286407        8.60912361755954
H           10.26514795011053       12.28912982126084        3.64893412133461
H           12.93000091790424        9.87703958842568        6.00940213872365
H           11.13470472245580       13.32435634405294        6.79831343117826
H           15.23610761691597       12.12780793562244        8.48485928035861
H            8.74623316171332        5.59658508015190        6.42576425424268
H            6.42698311542474       10.90987486407843        2.56510287307639
H           14.84712045612834       10.89273279350838        4.88025240741434
H            5.32607424631408       12.67932061787594        3.89825950258684
H            9.81747023659034        4.79187616303879        4.34103886193760
H            4.16964087184981        9.76640920284898       16.46655317982907
H            9.88551538154442       16.50328041049000        4.22159865325206
H           11.29602581426178       14.82804527141004       18.80889280873367
H            5.29750694117429       18.02352444144627       12.73762250784837
H           15.28866278674668       18.74287856733259       11.18310308163375
H            4.79889197560051        4.23904325356891        9.55154130609915
H           12.98154913702209        3.97949028244198        5.52637264273115
H           14.50060238661797       12.63675023562156        3.14949485441743
H           12.41268689521209        3.51339009533396       14.71170039929474
H           17.89185656946543       12.24028985387812        5.13490135656568
I           14.81956637074663        8.77865693425841        7.91249822944476
