309
 energy: -490.982092604404 gnorm: 0.000049965583 xtb: 6.5.1 (579679a)
Au          -0.24164660038903        6.18330506961864       19.63441755342777
Au           0.82883922501443        7.93636726770797       17.61814530683561
Au           0.86202755096410        6.46352448536368       15.20275391404475
Au          -0.68155875840412        3.71753139153257       15.67108706358731
Au           1.22990485209284        4.83010323197697       17.60784013593042
Au          -1.06666714049235        6.17767475978972       17.03521227178643
Cl          -0.12908495222326        2.53892324175708       13.58091460271252
P            2.65757269149112        7.20583676817659       13.79645858072901
P            2.22316991455956        9.86669190467591       17.67222451173536
P            0.92995362462171        5.71270430906445       21.66740753788953
P            3.22162454036492        3.65944787756257       18.15574492354041
O            4.31774492682526        8.76579233917968       15.83264213326603
O            1.73986688245709        3.03932728954916       20.73013273354470
C            2.47800791973930        6.26177579441351       12.24688547548865
C            1.83536423387391        5.02396545424845       12.30482637964531
H            1.51008857160262        4.63217189790051       13.26036248116809
C            3.26649134372044       10.93165894525061       12.13676490997863
H            4.09614315633279       11.54141600549042       11.79749008824313
C            1.60057478905933        4.28554754183664       11.15620312770355
H            1.08654592015347        3.33472888151192       11.23491671618765
C            2.00863743598947        4.77694369378373        9.92517546039781
H            1.81926586844986        4.20941793429413        9.02128403658525
C            2.66032236136167        6.00227615026344        9.85170211498177
H            2.98438742029686        6.38860636870719        8.89186303249580
C            2.89416751371205        6.74230087276395       11.00069115124930
H            3.39982990894085        7.69912980864552       10.92909284895761
C            3.51534470019250        9.70547122238592       12.73499146364100
H            4.53817657320311        9.36828270512797       12.85653499028591
C            2.45888330698570        8.90514961748515       13.17323240508726
C            1.96205613905895       11.37144285622842       11.96016965345664
H            1.76873505224459       12.32301155431007       11.47871568896718
C            0.90503651235997       10.59383255582390       12.41379316704037
H           -0.11547102809512       10.93931418068627       12.29520729738393
C            1.15221574845285        9.37503923922866       13.02334630273795
H            0.32330148644499        8.77213232828762       13.37924415748936
C            4.43911353601868        7.06508111380306       14.15583612676895
C            5.19454098090380        6.10100926266746       13.48590666667724
H            4.70211870589629        5.42168956382747       12.80125633103260
C            6.56036888148300        6.00822218329781       13.67545036039369
H            7.13383606473866        5.25515210625259       13.14929163767391
C            7.20219131529427        6.92266388134401       14.49544554801888
H            8.28030114617767        6.87917743395901       14.57666565973299
C            6.48321560523997        7.89051549305971       15.18888893775386
C            5.08954317220339        7.90931949443619       15.06963935947436
C            7.16781645369511        9.01066551046164       15.94905012084399
C            7.26009549487486       10.22476371701455       14.99463925591387
H            7.85865895505738        9.96649560479253       14.12157542268508
H            7.72350242944411       11.06686533628704       15.50798649975956
H            6.26478602951332       10.52024621212194       14.66323475654368
C            8.58432590819543        8.63199741973664       16.40054957964946
H            8.56062458273890        7.76798662159756       17.06405096612737
H            9.05660739843246        9.46460484145965       16.91951942870549
H            9.20851843167854        8.39957506351078       15.53913402086006
C            6.27553820433606        9.41219180810285       17.10674391111041
C            6.78718533953210        9.93828280414721       18.28909293292885
H            7.85669377369983        9.99826655531512       18.44221991231477
C            5.94645966124224       10.40531839128179       19.28770272720026
H            6.36128933557443       10.80396174801271       20.20533574504085
C            4.57807150314301       10.39619126247077       19.08998078012095
H            3.92623892587630       10.79770037547776       19.85540691894730
C            4.02663105986338        9.88451834677377       17.91375428287185
C            4.88710796327436        9.34848672580000       16.94291857110366
C            1.90097462958946       11.07386721983386       16.34987152816862
C            2.86538903736468       11.91349086388569       15.79225945598236
H            3.90776301057609       11.79967597517244       16.06678830031281
C            2.49452684132415       12.90327849617746       14.89373605166094
H            3.25150593363660       13.55258721543252       14.46889802526976
C            1.16073899455790       13.07247889146554       14.54921598461616
H            0.87230097999682       13.85936397962146       13.86199528639518
C            0.19682217468571       12.22193552595737       15.07583861029833
H           -0.84430205682491       12.34026179701550       14.79855682107602
C            0.56736688406177       11.22237212879827       15.95875530647708
H           -0.18318088295625       10.55157996519257       16.36418500639531
C            1.62810656095875       10.81640911460862       19.11867924400128
C            1.62205625040489       12.21361716969555       19.16235581143743
H            1.99019001795496       12.78254249459919       18.31618246896514
C            1.14786904862057       12.88351804471080       20.28036452569700
H            1.14797487412620       13.96741678157974       20.29595649088634
C            0.68436350716385       12.17163754020321       21.37953857219999
H            0.32287175315348       12.69719644836350       22.25570554497170
C            0.68546185742125       10.78390020025008       21.34972361322023
H            0.33468486303283       10.21878466347736       22.20547159739873
C            1.14313227006765       10.11649264812979       20.22501501389612
H            1.12531901786943        9.03323565149505       20.20369153382957
C            2.72354207543758        5.98277595561950       21.82010667896789
C            3.30420207440545        6.99914061564497       21.05868673232804
H            2.70786382094719        7.52025508827838       20.31701527477759
C            4.62941918765186        7.35329372870896       21.24903900993944
H            5.06295894283480        8.15594150975585       20.66283985527176
C            5.39995447033221        6.67763307586121       22.18582548187798
H            6.43589079408245        6.95726142344087       22.33845602905504
C            4.84585206106809        5.63423169740120       22.91464028538899
H            5.45061709535827        5.09279441837788       23.63307914633764
C            3.51459125036858        5.28987619797318       22.73805892153454
H            3.08268852023674        4.48567380558278       23.32270603289319
C            0.26445830932815        6.95487131512052       22.82643366905997
C            1.04966239277364        7.78621850370255       23.62498181257358
H            2.12824138370485        7.68143098514893       23.62357765415859
C            0.46081277979579        8.75511406355702       24.42676304538503
H            1.08582659088768        9.39433730872677       25.04003671382527
C           -0.91934795650998        8.90153535107720       24.45086321256830
H           -1.37646610902350        9.65632862034646       25.08017107908369
C           -1.71221382474022        8.07722092542870       23.66254054288694
H           -2.79108745047756        8.18237131820623       23.67552317026696
C           -1.12421521295985        7.12292295161727       22.85018039280447
H           -1.74543462615886        6.49133461651575       22.22459217790141
C            0.58684402071115        4.13764967185984       22.49064527489221
C           -0.18630947806221        4.08743793924128       23.65135739237078
H           -0.50529156992539        5.00687094287298       24.12560112798159
C           -0.55286000648976        2.87412948136814       24.20307620949108
H           -1.15833205433136        2.84481017263916       25.10085956389392
C           -0.13963798798085        1.69884257865989       23.59924475357371
H           -0.43848570183246        0.75254844723999       24.03402353529373
C            0.64327166091663        1.70983508788817       22.44738509444215
C            0.98818636132488        2.93575901059924       21.88091549448889
C            1.06834102882161        0.39252701873988       21.83733384632245
C           -0.18998324878770       -0.37967798049379       21.39445560631763
H           -0.81053014130701       -0.62031260940046       22.25655746299126
H            0.08502962374732       -1.30741753947201       20.89453552125712
H           -0.77081264093430        0.23604492960693       20.70860854622510
C            1.85501204688795       -0.41426419706807       22.89137493404223
C            1.95516691352246        0.62377846603517       20.63113695300483
C            2.22286003914668        1.89952656923778       20.12857419261390
C            3.02367543104524        2.05335204114000       18.98115265702871
C            3.57766492816320        0.91763293719820       18.38425089704702
H            4.20554595123754        1.02915640230452       17.50923531250043
C            3.32844954084333       -0.34475618050262       18.88577077863399
H            3.76044714553135       -1.21685624155770       18.41065400656311
C            2.50588108149752       -0.48320163504549       19.99044077330226
H            2.29035684362544       -1.47794134060695       20.36181562442369
C            3.83578814836718        3.18728215960011       16.50194768926428
C            2.90101221562489        2.66391559907566       15.60279670001076
H            1.87937015036472        2.50744433082308       15.92711440818591
C            3.25592444878988        2.33908024122030       14.30575953689432
H            2.50383821970227        1.94807044156023       13.63090563189492
C            4.56470531329254        2.52450292360684       13.88109435076214
H            4.84968121730067        2.27457342264692       12.86567896203886
C            5.50833098594755        3.02732665046687       14.76584767252569
H            6.53609095141781        3.16120161851387       14.44724548183765
C            5.14936746567030        3.36366281729698       16.06348136450954
H            5.90152468478777        3.76294449104900       16.73362358144182
C            4.69786720179375        4.43470484624662       18.88403494256547
C            5.49115245376810        3.80623990390182       19.84359532173167
H            5.18280950806084        2.85280499250084       20.25716954695791
C            6.68153210775781        4.38574455991532       20.25735559956978
H            7.29448133792847        3.88422377282839       20.99747607500509
C            7.09352945724036        5.59607847035225       19.71729993847652
H            8.03235862467757        6.03997959319677       20.02765912753778
C            6.29382694409737        6.24399213768413       18.78420375710630
H            6.60347866966624        7.19702492518819       18.37209944642769
C            5.09964151573403        5.67377812493772       18.37566822409090
H            4.47834952008842        6.18188277339190       17.64464542165441
Au          -1.89176364256673        6.18344783404513       14.43609873986066
Au          -2.96219173494464        7.93635447411014       16.45242863640948
Au          -2.99543514700282        6.46332467808123       18.86773748826906
Au          -1.45177448889916        3.71740345461233       18.39931457443545
Au          -3.36327084280995        4.83006560877459       16.46256094535115
Cl          -2.00433074774056        2.53890995507735       20.48954128569126
P           -4.79084292782185        7.20574373172339       20.27417995194968
P           -4.35670844265240        9.86664903109281       16.39837945526375
P           -3.06334960117291        5.71280579786902       12.40310850050976
P           -5.35500255512578        3.65954077512906       15.91469050402278
O           -6.45114036043093        8.76566292539265       18.23801413771928
O           -3.87327867214087        3.03941614388208       13.34033247632805
C           -4.61119424548784        6.26178527843035       21.82380410301565
C           -3.96855369584372        5.02397205156608       21.76592027277743
H           -3.64331253294399        4.63211340621999       20.81039876976750
C           -5.39916369257952       10.93179236500963       21.93355628473937
H           -6.22871537939127       11.54168095525659       22.27283940386097
C           -3.73372319464453        4.28563324320930       22.91458651075557
H           -3.21970926880935        3.33480172332720       22.83591667507017
C           -4.14173328656946        4.77711917380976       24.14559649990458
H           -3.95233791773502        4.20965376025841       25.04952023668579
C           -4.79339751176287        6.00246843670745       24.21901103587189
H           -5.11740947966842        6.38888070864778       25.17883512327232
C           -5.02728747872014        6.74241068972752       23.06998030895223
H           -5.53292300278968        7.69925755874917       23.14152683726862
C           -5.64821888772279        9.70557724922404       21.33547324177945
H           -6.67109832026294        9.36849218797377       21.21404491303300
C           -4.59189243322022        8.90508488362546       20.89722490174341
C           -4.09465853275871       11.37143860511219       22.10998640175549
H           -3.90117980046838       12.32303815274054       22.59131473310493
C           -3.03777320407082       10.59366226881227       21.65633370322367
H           -2.01721141106527       10.93903781056745       21.77476689676698
C           -3.28515519788674        9.37483475178724       21.04693362640836
H           -2.45634753246006        8.77179488781155       20.69101305302321
C           -6.57243420393977        7.06512261416739       19.91500271024357
C           -7.32784703930725        6.10116185402698       20.58510792445993
H           -6.83539056719740        5.42188727418565       21.26977749392206
C           -8.69369425810766        6.00841760681300       20.39570357634473
H           -9.26714638824224        5.25544650197626       20.92201802113437
C           -9.33554588221850        6.92279376421656       19.57565996398481
H          -10.41366633651111        6.87935758333344       19.49455529974781
C           -8.61658887118439        7.89053161825952       18.88203752692108
C           -7.22290493113639        7.90929731842682       19.00116908538610
C           -9.30123081374550        9.01061159563978       18.12180788667424
C           -9.39345263982891       10.22479295596859       19.07611827149716
H           -9.99191390084381        9.96658867548016       19.94927128180996
H           -9.85693594254449       11.06683503147408       18.56274311224433
H           -8.39811470845366       10.52033375015709       19.40738733129871
C          -10.71776016467132        8.63188863979369       17.67041313042050
H          -10.69407123338412        7.76782899330060       17.00697413095525
H          -11.19008082572596        9.46444718020317       17.15140179312658
H          -11.34191175832588        8.39952291898666       18.53187372425355
C           -8.40902213455300        9.41204227583135       16.96402817804930
C           -8.92074182906891        9.93812040495466       15.78170259326433
H           -9.99025887483480        9.99816589234091       15.62866318697226
C           -8.08007838045038       10.40506203188121       14.78300072417354
H           -8.49496502816548       10.80368260686029       13.86538602393071
C           -6.71167599176914       10.39589214547854       14.98061187636072
H           -6.05989494720395       10.79734688470979       14.21511330305001
C           -6.16016882541810        9.88428056191897       16.15682947257541
C           -7.02058259132578        9.34830288403026       17.12774917750231
C           -4.03474644003296       11.07397566740860       17.72066404377897
C           -4.99933261213819       11.91342921739780       18.27823601584845
H           -6.04169366975990       11.79936788291009       18.00375591346792
C           -4.62866523640633       12.90337113665386       19.17666557416536
H           -5.38577646428568       13.55254763242801       19.60147148717899
C           -3.29490561341672       13.07289724691924       19.52113357499587
H           -3.00662550927794       13.85991086866366       20.20826940310467
C           -2.33081611054487       12.22251582437509       18.99456757839025
H           -1.28971019339492       12.34108569334218       19.27182112887892
C           -2.70116267222103       11.22279878963957       18.11174319096204
H           -1.95047322540160       10.55213663549271       17.70635884676360
C           -3.76172299401635       10.81636229068969       14.95189040719602
C           -3.75615349371106       12.21356768704337       14.90804542328332
H           -4.12467316442651       12.78247600904710       15.75406371481604
C           -3.28191134871453       12.88349083181065       13.79007673750195
H           -3.28238527883857       13.96738780408207       13.77433264551630
C           -2.81785944601297       12.17163414149578       12.69111693892475
H           -2.45629204953661       12.69721049126972       11.81499322309213
C           -2.81850510780003       10.78390007590020       12.72108790195655
H           -2.46731857084324       10.21879744265561       11.86549985737324
C           -3.27625027713033       10.11647552933582       13.84575278176677
H           -3.25809811806065        9.03322591115871       13.86721968910256
C           -4.85693407821549        5.98288905608340       12.25036433855172
C           -5.43757459645026        6.99934451893520       13.01168096499241
H           -4.84120192407546        7.52059411003198       13.75323139877056
C           -6.76282127189933        7.35341853457030       12.82138339267014
H           -7.19634649956817        8.15613221442999       13.40750329621822
C           -7.53340588200096        6.67759284176845       11.88475614147420
H           -8.56936673769422        6.95715388822084       11.73217273569870
C           -6.97932106735986        5.63410600913126       11.15604966131450
H           -7.58412716515609        5.09254095392462       10.43774071478923
C           -5.64803312586804        5.28982468741595       11.33257745502115
H           -5.21615821655406        4.48554253088298       10.74801900268629
C           -2.39778119946663        6.95496726317765       11.24412344202463
C           -3.18292727374483        7.78649520819603       10.44570799683539
H           -4.26152080945008        7.68185419038319       10.44717633951302
C           -2.59400026844161        8.75538553771303        9.64397486730321
H           -3.21896968017582        9.39475954761703        9.03081222981814
C           -1.21382155547705        8.90162275640095        9.61979524810112
H           -0.75664456597830        9.65641606431771        8.99053091299012
C           -0.42101314370491        8.07714021455800       10.40800180230088
H            0.65787307721329        8.18216084076476       10.39496990237542
C           -1.00908591544482        7.12284563820482       11.22031210889407
H           -0.38790440899809        6.49112931353488       11.84581012239027
C           -2.72024654512623        4.13776270424226       11.57983974744042
C           -1.94710885116915        4.08756009477786       10.41911495430815
H           -1.62814090493814        5.00699497238186        9.94486448670320
C           -1.58054402574141        2.87425548735367        9.86739507051187
H           -0.97507486039159        2.84494245627554        8.96960930007018
C           -1.99374687638044        1.69896197373464       10.47122748074338
H           -1.69489379626158        0.75267422208980       10.03643936991262
C           -2.77666227043761        1.70994159377841       11.62308300137081
C           -3.12158575615141        2.93586214100208       12.18955585507797
C           -3.20175040164343        0.39262436717680       12.23310480277303
C           -1.94343909917923       -0.37964869812370       12.67589713760987
H           -1.32292522758137       -0.62027051812278       11.81376680004098
H           -2.21847643315173       -1.30740078189894       13.17577891549421
H           -1.36256598506433        0.23601617289632       13.36175887114657
C           -3.98848672354468       -0.41409186675243       11.17905308340953
C           -4.08853344207419        0.62386173148247       13.43933660426436
C           -4.35624215435930        1.89960763838727       13.94189508835708
C           -5.15704712745907        2.05342700308502       15.08932410354066
C           -5.71100154574536        0.91770299738065       15.68624636879418
H           -6.33887562781604        1.02922864305263       16.56126676979263
C           -5.46176844758360       -0.34468626182152       15.18473319471250
H           -5.89373621775454       -1.21679158404443       15.65986753136300
C           -4.63921705877075       -0.48312521254364       14.08005008226639
H           -4.42367910407563       -1.47786146603631       13.70867135922652
C           -5.96919937940935        3.18743495075013       17.56849608453024
C           -5.03446197260663        2.66403856739393       18.46767148152282
H           -4.01283627392871        2.50745692630735       18.14335578763298
C           -5.38939283762858        2.33931199165028       19.76473021925014
H           -4.63734013291843        1.94825895071920       20.43959679360596
C           -6.69815114846526        2.52488282651171       20.18940006225359
H           -6.98314417679934        2.27501906825690       21.20482640346945
C           -7.64173973027778        3.02773837719405       19.30462668282811
H           -8.66948410852402        3.16173009949741       19.62323085828593
C           -7.28275935537490        3.36395554203961       18.00696747009546
H           -8.03488934947494        3.76327732986411       17.33681860772426
C           -6.83124968028669        4.43479021859094       15.18640219603608
C           -7.62462883577301        3.80624263006501       14.22697159922251
H           -7.31631506773633        2.85277940134365       13.81343985959520
C           -8.81505687384673        4.38570011614734       13.81328976535104
H           -9.42808253444706        3.88410729784598       13.07328174118988
C           -9.22701680730838        5.59606614267828       14.35330108892678
H          -10.16589973130847        6.03991501653372       14.04303211898961
C           -8.42722170041663        6.24406498509527       15.28625731733790
H           -8.73685423331634        7.19711629742018       15.69833340287285
C           -7.23298235969899        5.67390256478499       15.69470801191524
H           -6.61162102131512        6.18207717510357       16.42562404079442
H            1.24819095071812       -0.57917351572762       23.78026405246737
H            2.14620623589975       -1.38626880239410       22.49652796896829
H            2.75412682809811        0.13169843225652       23.17794094499987
H           -3.38170039594108       -0.57900096186049       10.29013921434832
H           -4.27971770019692       -1.38609303132295       11.57387956774090
H           -4.88758359565366        0.13192325551505       10.89253178271937
