271
 energy: -431.243122087061 gnorm: 0.000697227294 xtb: 6.5.1 (579679a)
Au          -0.89743527230809        1.76771472846348        9.88837108531122
Au          -2.27120488557356        3.93318543472428       11.41706666783097
Au          -0.00000377732984       -0.00036120466438        7.88585595341013
P           -3.75020052183358        3.27565137192333        9.70824646171688
P            0.00000845631694        0.00010223676048        5.52637840909757
C           -3.08853769780067        3.67872081695565        8.06903281492692
C           -2.49532894536866        4.93610018895900        7.90487495146774
H           -2.42513394975656        5.60843149068970        8.75392000950589
C           -2.01393954275629        5.33235172861833        6.66825588276138
H           -1.56668596686877        6.31250526666537        6.55354097627492
C           -2.11546853329221        4.47719446955515        5.57866761144770
H           -1.74781867347273        4.78813029720024        4.60822663955254
C           -2.69197350528209        3.22403130030182        5.73356366575271
H           -2.77451335571255        2.55738635824188        4.88338174083137
C           -3.17500975309135        2.81962921856045        6.96897785462046
H           -3.62502554226295        1.83904956815943        7.07675588192011
C           -5.43027098372242        3.94151857386045        9.75736782452762
C           -5.98480476392260        4.26778617107475       11.00181985144055
H           -5.40320774248032        4.10781102671779       11.90543315318043
C           -7.26244344265921        4.79616176920667       11.08098072893020
H           -7.68086453382177        5.04752887497739       12.04839980544972
C           -7.99807409765542        5.01450000960517        9.92270976972957
H           -8.99304363331412        5.43880977597430        9.98590007989165
C           -7.45500587232159        4.69921526819702        8.68392813122635
H           -8.02472632298785        4.87501743753118        7.77914065493596
C           -6.17876899523893        4.16675207801241        8.59482933741569
H           -5.75523578104266        3.93225652948688        7.62486220327821
C           -2.81451127335951       -0.58624687409830        9.75249875997160
N           -2.79320647839647        0.75691957670327        9.80255430170340
C           -3.92833180241096        1.46196611209493        9.65835106243110
C           -5.15652745846752        0.83826013440270        9.49445154296697
H           -6.05282934281341        1.43663865398031        9.39013429831993
C           -5.21113375159137       -0.54575720103479        9.44932739742702
H           -6.15454872493699       -1.06127223909486        9.31404817257463
C           -4.02455396798975       -1.24664694719673        9.56732957094548
H           -4.02404907513412       -2.32787627840949        9.51256610117460
C           -1.67435287411050       -0.09003104230109        4.83372310761709
C           -2.68703438225897       -0.67176756776051        5.60236294346648
H           -2.45812559652437       -1.04397945570914        6.59673759037034
C           -3.97596697069395       -0.77918862316574        5.10483656039474
H           -4.74943708489960       -1.23343426974382        5.71373766597509
C           -4.27193372473067       -0.30625483839691        3.83270113450237
H           -5.27900377552068       -0.39246081052958        3.44269855797734
C           -3.27639423634098        0.28197736122678        3.06422978734615
H           -3.50359789879345        0.65556824012580        2.07281731251051
C           -1.98590882252670        0.39712251320767        3.55950947736520
H           -1.21895604685453        0.86956803829448        2.95696443102430
C            0.91533083241990       -1.40479683292070        4.83368217885704
C            1.92541487678775       -1.99097545490754        5.60236863586643
H            2.13325395034124       -1.60665386180565        6.59676413482139
C            2.66291611744191       -3.05352077674026        5.10486544442597
H            3.44298605921788       -3.49627772774799        5.71380913996232
C            2.40138892627148       -3.54627390159807        3.83270480705534
H            2.97957797631507       -4.37533268082938        3.44272510191195
C            1.39426295782930       -2.97818152351391        3.06418203432634
H            1.18437694524795       -3.36171852361959        2.07274917981201
C            0.64929516359364       -1.91815383373963        3.55943752027744
H           -0.14327324574440       -1.49013290658606        2.95684643619478
C            0.75913055754041        1.49536057833795        4.83403995674825
C            0.76184089780863        2.66303386821627        5.60298717282666
H            0.32512930280237        2.65067854016709        6.59739616646373
C            1.31333895483033        3.83307515046394        5.10572330171392
H            1.30682091071442        4.72988117643563        5.71486478698993
C            1.87077932966109        3.85321322255458        3.83354254910759
H            2.29970681388631        4.76852961041038        3.44374674260278
C            1.88225320249890        2.69714058348813        3.06475866694365
H            2.31929612818100        2.70733857970973        2.07330523586948
C            1.33667649655302        1.52188941151212        3.55977800543759
H            1.36221665568906        0.62162251241593        2.95699298139252
Au          -1.08202378589967       -1.66081090167391        9.88816693468854
Au          -2.27239066804494       -3.93502650505925       11.41626987218189
P           -0.96180693946930       -4.88573003174176        9.70825395327632
C           -1.64185351525855       -4.51428968990983        8.06908283708656
C           -3.02732743219231       -4.62993352676151        7.90493393910901
H           -3.64451835224261       -4.90578102240025        8.75394567108823
C           -3.61131842089368       -4.41123265891833        6.66835956977414
H           -4.68372747224219       -4.51454403914886        6.55362641858435
C           -2.82016434202016       -4.07091464964163        5.57883026281334
H           -3.27336631269113       -3.90802523805465        4.60842749429655
C           -1.44670972572426       -3.94288406561031        5.73373904024132
H           -0.82826017625707       -3.68050767728064        4.88360907789942
C           -0.85483109636600       -4.15897241480236        6.96909672806509
H            0.21933195644094       -4.05785999672696        7.07687466524445
C           -0.69857547386567       -6.67366242524714        9.75734038510465
C           -0.70598373074714       -7.31746170022999       11.00155081522386
H           -0.85982624380278       -6.73410946227472       11.90509689111583
C           -0.52484865285665       -8.68814447473787       11.08055246981024
H           -0.53501441160910       -9.17652759017403       12.04778512103676
C           -0.34404817864304       -9.43397507144769        9.92234149931374
H           -0.21408703601409      -10.50781544288334        9.98538412826690
C           -0.34038911654729       -8.80559088906852        8.68377705238494
H           -0.20613649246773       -9.38656689969066        7.77902707480956
C           -0.51733037813392       -7.43409214746841        8.59484110767533
H           -0.52438299720437       -6.94971513453009        7.62502570784581
C            1.91482930521401       -2.14449233983301        9.75247431322851
N            0.74095751549244       -2.79761245024105        9.80238499926239
C            0.69793886818661       -4.13318282101442        9.65818005167558
C            1.85217499094365       -4.88499445052090        9.49438612327825
H            1.78210905385083       -5.96040178761315        9.39004597303489
C            3.07807460796157       -4.24028919544106        9.44937097467828
H            3.99622561096175       -4.79956311727607        9.31411525882313
C            3.09177912227924       -2.86223813033472        9.56741810357431
H            4.02790443270184       -2.32119792765152        9.51270896246536
Au           1.97907760462111       -0.10680132557817        9.88783996322238
Au           4.54464198394638       -0.00075689514342       11.41627269416583
P            4.71192540865997        1.60986546735041        9.70807421316641
C            4.73031317909196        0.83532430559953        8.06886415411157
C            5.52287378053352       -0.30692980970342        7.90468839952054
H            6.07009928842999       -0.70379206777829        8.75373624340594
C            5.62547224216204       -0.92189197763157        6.66804390711913
H            6.25089035131747       -1.79914981887438        6.55328907742724
C            4.93551056857136       -0.40652005752598        5.57847592917279
H            5.02105573309402       -0.88033726400230        4.60802005147440
C            4.13823190485200        0.71913965822416        5.73341041929130
H            3.60205269270780        1.12383741165103        4.88325098933726
C            4.02942156971813        1.33962020604681        6.96883607101906
H            3.40502738606237        2.21949200982497        7.07664651548576
C            6.12866113377504        2.73186064204882        9.75729235155191
C            6.68880266428780        3.04854084418441       11.00170748023424
H            6.25970318084550        2.62452479456213       11.90528261680680
C            7.78523142760731        3.89079647759299       11.08087416509808
H            8.21238957171340        4.12713640607764       12.04826287137668
C            8.34182970129211        4.41911205460083        9.92264405513465
H            9.20679144568637        5.06860878156418        9.98583338694864
C            7.79692827244001        4.10687168378033        8.68389543031590
H            8.23379019525158        4.51269549239134        7.77913673203150
C            6.69768068533132        3.26785487160076        8.59478933967360
H            6.28258896062897        3.01864985203088        7.62483965767727
C            0.89960956626233        2.73044021057508        9.75253982260541
N            2.05216400022694        2.04037971506486        9.80231139908766
C            3.23029447290625        2.67091944912225        9.65802515761357
C            3.30426713246999        4.04642696314671        9.49429171544834
H            4.27063561290377        4.52344504788507        9.38998235312080
C            2.13298475781452        4.78573171038936        9.44931240914546
H            2.15824777441391        5.86051644582029        9.31411050380047
C            0.93271861907601        4.10856320056322        9.56737822366405
H           -0.00390319242012        4.64873682571440        9.51263125767408
Au          -0.89735289118481       -1.76792981293581       12.94467653518760
Au           0.00031926551373       -0.00051984662455       14.94825956634714
P           -3.75014817339509       -3.27586352466710       13.12547388321098
P            0.00000261684744        0.00007595297614       17.30723044741479
C           -3.08857676687024       -3.67888207706679       14.76473187603963
C           -2.49551530945331       -4.93631416170741       14.92902345257575
H           -2.42538876386060       -5.60874646499891       14.08005179971987
C           -2.01417222876642       -5.33247518143953       16.16569138391082
H           -1.56706219958143       -6.31267995206968       16.28053220626327
C           -2.11557336060588       -4.47716562176920       17.25517386791073
H           -1.74796885422605       -4.78803293128680       18.22565374845115
C           -2.69189377801552       -3.22393591981086       17.10012456392965
H           -2.77432854252451       -2.55716495480244       17.95021740796223
C           -3.17490122597636       -2.81963243750145       15.86466963830093
H           -3.62477517044342       -1.83900261271085       15.75676242024990
C           -5.43020339384742       -3.94179326819087       13.07633228331883
C           -5.98484798682987       -4.26779814387207       11.83185635232447
H           -5.40333260600500       -4.10761083516322       10.92822807854657
C           -7.26248329803120       -4.79619547634877       11.75269934107241
H           -7.68099881562379       -5.04734587210980       10.78526426651622
C           -7.99799646647265       -5.01483620971715       12.91099003314755
H           -8.99295833887032       -5.43916810032962       12.84779887453664
C           -7.45481736279130       -4.69982017412899       14.14978948689206
H           -8.02445004068294       -4.87584122579648       15.05459102920917
C           -6.17858502593661       -4.16733975252963       14.23888852419002
H           -5.75498373437402       -3.93303956504974       15.20887210328153
C           -2.81441493808078        0.58603070179489       13.08128478779544
N           -2.79308101078287       -0.75714286440085       13.03131049080439
C           -3.92823043642372       -1.46218796700357       13.17537779079177
C           -5.15645210945296       -0.83850555133929       13.33911578621522
H           -6.05273898328602       -1.43690802151363       13.44343634251934
C           -5.21108160599803        0.54550584562243       13.38416424882323
H           -6.15450697487029        1.06100326958481       13.51943049920121
C           -4.02449928878576        1.24640518402762       13.26621549194773
H           -4.02400226758647        2.32763500776106       13.32096034870816
C           -1.67443333462894        0.09039039561554       17.99965131180947
C           -2.68703471045726        0.67196780999345       17.23078558303077
H           -2.45803796747077        1.04394925478837       16.23634427404426
C           -3.97600585482396        0.77953048459096       17.72817831295540
H           -4.74941710796343        1.23364509979177       17.11910440669839
C           -4.27208289795799        0.30690522261442       19.00040335590996
H           -5.27918096334624        0.39322943652628       19.39030561602911
C           -3.27662068713792       -0.28117048348650       19.76909403579862
H           -3.50391034472800       -0.65452361039460       20.76057556152521
C           -1.98610105715593       -0.39646504761575       19.27394612081278
H           -1.21919869703787       -0.86878402526887       19.87665526507464
C            0.91527125521295        1.40516799682049       17.99956862338072
C            1.92526649298972        1.99128440101125       17.23072523816201
H            2.13306097123121        1.60682686958586       16.23637159860697
C            2.66274241924338        3.05393823332694       17.72803473395515
H            3.44275712408242        3.49664667726742       17.11898481201284
C            2.40127065235899        3.54685055936996       19.00014523390530
H            2.97944150894845        4.37598955324207       19.38997754782376
C            1.39422130376602        2.97881453796276       19.76881348511272
H            1.18437786823661        3.36246865469603       20.76020868394534
C            0.64928051859220        1.91868255468348       19.27375154880091
H           -0.14323556183514        1.49070457072478       19.87644218547785
C            0.75909725909493       -1.49499751401663       17.99994586686273
C            0.76170907300023       -2.66289733886758       17.23134257142453
H            0.32493205357532       -2.65081003479343       16.23695384537267
C            1.31319179439066       -3.83280794646054       17.72893900966356
H            1.30660036654773       -4.72980619421080       17.12008266185869
C            1.87072832468687       -3.85256866946105       19.00108707258468
H            2.29965958065019       -4.76777583255671       19.39113515003366
C            1.88230017895082       -2.69626061697272       19.76951413634206
H            2.31941933140158       -2.70615937684791       20.76093678444551
C            1.33672721352094       -1.52114861844830       19.27417265226276
H            1.36232678995753       -0.62069689697407       19.87667886069588
Au          -1.08260073798305        1.66150421458529       12.94391445098122
P           -0.96180405446244        4.88551819534800       13.12530359152861
C           -1.64176741760053        4.51414882645288       14.76452140820916
C           -3.02728127445947        4.62933319032515       14.92863109148165
H           -3.64456192935102        4.90477532537675       14.07955504443506
C           -3.61121543684503        4.41070131360523       16.16524000218150
H           -4.68366588769705        4.51363292076043       16.27991970758868
C           -2.81995528759349        4.07094678698369       17.25486519002061
H           -3.27311802134362        3.90812202326220       18.22529623519445
C           -1.44644902595619        3.94339622622917       17.10001479836946
H           -0.82791984419471        3.68147533826064       17.95022649694646
C           -0.85463044867265        4.15938553588558       15.86461169295881
H            0.21957203028821        4.05863655381441       15.75687653564823
C           -0.69839142926340        6.67342816990641       13.07613562892053
C           -0.70476084663483        7.31696461371404       11.83177909340577
H           -0.85786076024766        6.73342872898906       10.92822542146522
C           -0.52353003012481        8.68762160744421       11.75263084931619
H           -0.53286315260665        9.17579227777358       10.78528243058051
C           -0.34369123762679        9.43370206628620       12.91083216252223
H           -0.21364770350749       10.50752432870105       12.84766289969192
C           -0.34109156715731        8.80558585994472       14.14953252157845
H           -0.20760149950511        9.38675447863075       15.05427086818077
C           -0.51810488271991        7.43410425793281       14.23861488243943
H           -0.52597060209877        6.94994417075842       15.20853048330112
C            1.91483250235523        2.14419738947125       13.08113356222369
N            0.74093935328380        2.79730801769594       13.03124807617027
C            0.69792803561324        4.13288775851088       13.17536523876434
C            1.85216992903338        4.88468617018331       13.33922428821060
H            1.78210168471873        5.96008963674592       13.44357837580069
C            3.07807022356707        4.23998540910740       13.38432868590397
H            3.99621951473827        4.79925451501510       13.51963470223258
C            3.09177936127007        2.86194309172547       13.26625902082747
H            4.02790757282568        2.32092013133586       13.32106856614027
Au           1.97916819339432        0.10655210386744       12.94548525448907
P            4.71195925286109       -1.61002393420228       13.12516049293001
C            4.73038277440569       -0.83538205111713       14.76432793367554
C            5.52317973397467        0.30672234443806       14.92840955963029
H            6.07060344027169        0.70332027862110       14.07936596382043
C            5.62575819245833        0.92187802423564       16.16495379269088
H            6.25135706353930        1.79901680360479       16.27963051636357
C            4.93553719163866        0.40684947987885       17.25451958411903
H            5.02106411411062        0.88081748746308       18.22490245758987
C            4.13802411072964       -0.71865619904519       17.09967663824384
H            3.60163907183030       -1.12308044756238       17.94983571152098
C            4.02923342335971       -1.33933165305941       15.86434499905990
H            3.40464847701023       -2.21907633369843       15.75660084285475
C            6.12873674961179       -2.73197454695326       13.07602196825024
C            6.68979738853254       -3.04767166291370       11.83177555186091
H            6.26137944261773       -2.62291270043499       10.92822644165441
C            7.78626704856910       -3.88989764651588       11.75274780945231
H            8.21414895384751       -4.12546293094962       10.78548987077174
C            8.34196696843787       -4.41919013755082       12.91095996899727
H            9.20695060431120       -5.06867223115672       12.84789316371055
C            7.79613576002531       -4.10795271687053       14.14955492571038
H            8.23229563777165       -4.51455047709276       15.05430591225336
C            6.69686043673289       -3.26895820916427       14.23851972352558
H            6.28105583669950       -3.02051310245114       15.20836117047634
C            0.89963424445228       -2.73064817719967       13.08118956697529
N            2.05217505374711       -2.04058786704653       13.03119497623385
C            3.23034515644685       -2.67111590987388       13.17523221576342
C            3.30434509517081       -4.04663651958092       13.33888545814899
H            4.27072145852044       -4.52364899986319       13.44314465177418
C            2.13308368400677       -4.78597275555494       13.38386048350113
H            2.15837613350546       -5.86076626704114       13.51899660153362
C            0.93279121129669       -4.10881907286739       13.26599148785132
H           -0.00379993743558       -4.64904655818797       13.32069006179599
