252
 energy: -396.974149214303 gnorm: 0.000024749188 xtb: 6.5.1 (579679a)
Au           7.78515987804100        6.63847914733839       16.88299073250765
Au           7.20236646546491        8.13409523289704       19.05480424281234
Au           9.50924130752645        8.66800168323157       16.87197798600932
Au           9.80595373514810        6.49164586280122       18.76243239910461
Au           7.21831947842919        5.16358723988704       19.07804592863053
Au           5.14504411752633        6.69213582878019       17.48041940250923
Au           6.64729071496111        9.10670131097034       16.35048916876717
Au           9.32975761807708        6.54628260766016       14.79921946877504
Au           9.21014722328454        4.37931102908369       16.79709765803076
Au           6.36146892320907        4.34774606504871       16.26279369016570
Au           6.39112410039454        6.79582264611548       14.61442273488847
Br          11.46726255167510        6.36086163124438       20.63033546554939
Br           5.47066029075598       11.29435099846370       16.03863986181834
Br           4.94018113757476        2.31658317446462       15.90623712494561
P            6.90310365732323        9.71531078996474       20.81781966075960
P           11.05452685428821       10.47553018380643       16.98891873350540
P            6.97610023844578        3.73122899150141       20.97304782384767
P            2.77312287850751        6.64063780405389       17.74607516244880
P           10.74485515651536        6.48858665785748       12.90473777199948
P           10.39190596379482        2.31229151746316       16.75118686950469
P            5.07760101741381        7.00571533121411       12.63812667971194
C            7.77831732372544        9.24700470408643       22.34244636651039
C            7.39554669089786        9.63813725482030       23.62767071068875
H            6.54104663215352       10.29200071463355       23.76413314255335
C            8.09983638590832        9.18482717887671       24.73357396726517
H            7.79150649157792        9.49103287321595       25.72728922348414
C            9.19048389278533        8.33819449554491       24.57513881828077
H            9.73010455136144        7.98231539538512       25.44555065776478
C            9.58028894214122        7.94624887373973       23.30225891751387
H           10.42470656787506        7.28180794611054       23.15057712961757
C            8.87574930653537        8.39695404168228       22.19900390002657
H            9.18046474303378        8.07325616768049       21.21053859440777
C            5.16946897437750        9.94784901260439       21.32950400418686
C            4.68171548001222       11.12419423446211       21.90227347141336
H            5.34891129130932       11.96355544690269       22.06354596846525
C            3.34398077297618       11.23037827109278       22.25259583996721
H            2.97521699859141       12.15078796471194       22.69160860126463
C            2.47738787745275       10.16587826323667       22.04225511562411
H            1.43209459874472       10.25340917720843       22.31621960093495
C            2.95014141392049        8.99364329206540       21.46830000164373
H            2.27817027197601        8.16152512774339       21.28997598626076
C            4.28317017427834        8.89337960260724       21.10619148524724
H            4.64722252080451        7.99108125666778       20.62870996003148
C            7.44548822978077       11.41434529638059       20.45802912147656
C            6.93359328930167       12.01528442189073       19.30376657659986
H            6.21888263674623       11.48396650524449       18.68272254899369
C            7.33822852826051       13.28609989922209       18.93207850587570
H            6.93112914922883       13.73545691990099       18.03332193623255
C            8.26382529289501       13.97541169909968       19.70488971139732
H            8.58537942246595       14.96887036855439       19.41312118209467
C            8.77981528354484       13.38601274847144       20.85050064603686
H            9.50242349572889       13.92001226212288       21.45742400986094
C            8.38087395503660       12.11068462094102       21.22357640547002
H            8.79998169717145       11.65541302816854       22.11395241952915
C           12.71841871147277       10.13303396273329       16.32753065359066
C           13.83842993118282       10.92264537934440       16.59726545354770
H           13.74502026357708       11.79295702789774       17.23757611602356
C           15.07369014024696       10.59294668162261       16.06056949014586
H           15.93597593844796       11.21491124500455       16.27390414561879
C           15.21071932511144        9.46820109008516       15.25713130741629
H           16.17894394283032        9.21225028198081       14.84181095741888
C           14.10749703117006        8.66778196068843       14.99528810619018
H           14.20851219069031        7.78223935549433       14.37731388146144
C           12.87243126010444        8.99994942247388       15.52826774291088
H           12.01045768417850        8.37292473893676       15.32760409224868
C           10.46968980452395       11.93518589073556       16.07561951128309
C           11.25518739103686       12.73423947352807       15.24355572729938
H           12.32061916390761       12.55043696330577       15.15978184964962
C           10.67576961244921       13.76068340211521       14.51001925658126
H           11.29664953577001       14.37535335073956       13.86729075279952
C            9.30865514326937       13.99442265430593       14.58579677329476
H            8.86136145959817       14.78808054229875       13.99807159011963
C            8.51728204659645       13.20049481834953       15.40523165272699
H            7.44334796550475       13.34614419701072       15.45800081854264
C            9.09641942792184       12.18396469231782       16.14390613434042
H            8.46987306097638       11.55836263143313       16.76957083028420
C           11.39346676406536       11.08180231493882       18.67295781708060
C           11.64460469348976       12.42072241060995       18.97782514324122
H           11.62847636467692       13.16724599913042       18.19131666266296
C           11.90860575085337       12.80199142868791       20.28523263977337
H           12.11231906106079       13.84315911519241       20.50991274436853
C           11.90987638546683       11.85758145900500       21.30398926666534
H           12.11134162285765       12.16182751199850       22.32491988606411
C           11.64635508491637       10.52588067964346       21.01218649895763
H           11.63658189728348        9.78244820196070       21.80146869671556
C           11.39288662360335       10.14144211385589       19.70585125008011
H           11.19371401366493        9.09755159357094       19.48773550306830
C            8.40142561735321        2.66947244603054       21.36323007892667
C            9.64665470157181        3.29387791547038       21.48695398353356
H            9.73054279912899        4.37134428414275       21.38040185213860
C           10.78644930657932        2.54863857757549       21.73718339915184
H           11.74365768226610        3.04914435464550       21.82998369656952
C           10.70183622299955        1.16805826919077       21.86311811870126
H           11.59403814304397        0.58266584329941       22.05489090046641
C            9.47100342855265        0.53914276421299       21.73837711407121
H            9.39930614035478       -0.53835738720726       21.83620146919102
C            8.32722447938402        1.28163673917654       21.48299003300128
H            7.37290591803511        0.77819517769520       21.37574313176604
C            5.55857266718840        2.59960097660681       20.83055196951208
C            4.88344731176938        2.03870479022571       21.91751929672695
H            5.21657906265147        2.24595122003069       22.92868553125441
C            3.78047098513787        1.22373841691068       21.70846675902633
H            3.26113154899122        0.79650089350678       22.55936856899060
C            3.33560639539015        0.95831435257771       20.41878407348002
H            2.46801711085931        0.32655325914412       20.26507481778136
C            4.00060358280550        1.50936778408411       19.33261653721542
H            3.67075605286536        1.32292677968732       18.31584543104800
C            5.10022357311004        2.32432492182141       19.54173287312832
H            5.60339952770727        2.76005152665744       18.68643421845485
C            6.69667732565594        4.61712595234925       22.54137511969942
C            7.08178209997039        4.12397853105674       23.78959646336352
H            7.57654509195573        3.16185388117946       23.86126766584615
C            6.84782470615037        4.86504084013969       24.93839219571758
H            7.15700906617225        4.47444658026328       25.90157130014967
C            6.22213637954151        6.10214368517738       24.85951590363391
H            6.04236901972492        6.67913720679603       25.75957355982652
C            5.83869399634646        6.60417135029436       23.62337547474234
H            5.35884173157681        7.57387070248179       23.55132889179894
C            6.08585519564962        5.87010289207833       22.47532123839939
H            5.81665689979055        6.27489895628594       21.50662282618544
C            1.80687200491347        5.99340532450162       16.34620183123824
C            0.77968476373475        6.70058485912983       15.72094351793768
H            0.49510576128475        7.68069307898126       16.08707218060973
C            0.11826948000170        6.15605652685819       14.62980648675548
H           -0.68331619661834        6.71245528747273       14.15695443959751
C            0.48172698176765        4.90911486574748       14.14087820244388
H           -0.03278714772433        4.49088466861182       13.28305948495004
C            1.50906147182152        4.20167885388259       14.75171772876181
H            1.80170011307050        3.22831332701453       14.37453729892579
C            2.16863291820509        4.73918706377725       15.84418897144959
H            2.97640513099635        4.17813171670428       16.30521955132425
C            2.07643050190801        8.28632475388824       18.08776727542244
C            2.81929994874366        9.38545746654089       17.65500932699289
H            3.74860551060066        9.23035777066802       17.11936097322931
C            2.39606806804867       10.67914549016813       17.90815147029513
H            3.00366188726258       11.50826653146684       17.56063222290233
C            1.21677828332144       10.89331628000441       18.60753726709560
H            0.88249493722372       11.90281726816549       18.81877992142167
C            0.46578954807923        9.80845412891530       19.04401872167566
H           -0.45518439219061        9.97271602246503       19.59275876313578
C            0.88934001835468        8.51229432658688       18.78872064946060
H            0.29943109094861        7.67330944852997       19.14154725310001
C            2.20774084347265        5.60732053774975       19.13676918012593
C            3.08980252274426        5.41969732300706       20.20168129970705
H            4.07290773700253        5.87393101295462       20.15778953476637
C            2.73226736696152        4.65086841273340       21.29667470970284
H            3.43001904326003        4.52126767199497       22.11651344567619
C            1.48829478976694        4.03572284958804       21.33134638958527
H            1.20920330086656        3.42236099524662       22.18061144603437
C            0.60790291408719        4.19791456894669       20.26981223246343
H           -0.36074136938564        3.71087472978957       20.28976864286892
C            0.96090321211439        4.98030634701601       19.18036543720024
H            0.26882690289158        5.09582541394481       18.35372762671248
C           11.45358568980775        8.10672286872819       12.46051154566356
C           12.71689730450675        8.27861916758562       11.89206535839143
H           13.32315496706899        7.41282722966613       11.64955711403659
C           13.20765452374372        9.55321256887917       11.64811241223265
H           14.19340184977571        9.67471523277082       11.21303097012487
C           12.44570426453895       10.66939755675930       11.96589893191503
H           12.83596525076970       11.66377405767179       11.78119399685313
C           11.18619289609009       10.51025804367377       12.52870913711333
H           10.59059382141179       11.37871200911745       12.78575236504611
C           10.69775354451567        9.23845135310984       12.77899618212012
H            9.72447314471906        9.11471726223019       13.24126362849242
C           12.19052692212120        5.39517050034225       13.08425553625083
C           12.69501422305065        5.22109268296585       14.37612548172974
H           12.23835343858068        5.75632382982018       15.20157896214633
C           13.75454991255786        4.36094387453934       14.61303528237611
H           14.13194348493578        4.23220907607941       15.62101850894338
C           14.31853639877609        3.65158755118804       13.56075656722941
H           15.13906082622795        2.96758046985848       13.74537657122282
C           13.82441869074140        3.81348705497287       12.27351035370121
H           14.25995344834433        3.25735524406913       11.45083891086605
C           12.76758925931398        4.67982315402774       12.03366437263883
H           12.38202055427213        4.79269630573750       11.02642201531966
C            9.92737704916197        5.91847839802623       11.38004047152741
C           10.25485021358628        6.36969853548632       10.10025826438320
H           11.07034751767358        7.07187217635372        9.96656937581503
C            9.53272908648827        5.93500726436557        8.99824051964266
H            9.79141053317635        6.29792881752774        8.00974214288536
C            8.47844909882853        5.04602531964199        9.15847692712067
H            7.91136300074325        4.71512525298995        8.29584818933691
C            8.14591758556631        4.58792823014099       10.42653341235577
H            7.31865219572460        3.89982813278865       10.55760990779597
C            8.86189034387045        5.02612364181739       11.52842031907716
H            8.58647885727005        4.68770391876455       12.52136601207152
C           12.03454427881352        2.44638221802523       17.51998649308548
C           13.20467011308820        1.86463207579066       17.02968242366680
H           13.16813247103537        1.21782243565316       16.16006302423435
C           14.42288040913813        2.12033577413645       17.64436687847003
H           15.32537074722442        1.66223467150437       17.25441947794934
C           14.49219257959630        2.96612002119039       18.74412684587613
H           15.44946076621772        3.17224129647544       19.20946668976848
C           13.33485942801563        3.55542414083802       19.23523425036022
H           13.36804948805002        4.24129601948421       20.07539537192043
C           12.11956356623959        3.29319137638914       18.62794105111105
H           11.22277322100033        3.76963007229616       19.00738774776481
C           10.69830811656857        1.61435767051895       15.09497444081416
C           10.54160044427224        2.46290383120404       13.99874671579142
H           10.25017425434292        3.49427974422771       14.16531666945943
C           10.74894969113075        2.00357660199398       12.70809006182636
H           10.62082215763260        2.67739690375005       11.86796660070238
C           11.11649382896454        0.68217628958487       12.49568519739175
H           11.27999647611333        0.31869155852067       11.48742120474305
C           11.26494832798918       -0.17634675338712       13.57741841015980
H           11.54328008458610       -1.21152175813729       13.41362702325560
C           11.05321501714452        0.28261196048020       14.86859464785059
H           11.15442108290573       -0.39986055283557       15.70534050284195
C            9.57160608010133        0.94312057503570       17.62928939108757
C           10.25916657984327       -0.05126621314216       18.32717379543715
H           11.34197304394646       -0.02439251433349       18.38146483271996
C            9.56222918571684       -1.07149052363076       18.95784627490099
H           10.10642360438874       -1.84458791560010       19.48902855803639
C            8.17422875798715       -1.10341999453647       18.91355393961736
H            7.63406143085309       -1.89982951015963       19.41294660038427
C            7.48137582391322       -0.11014812400581       18.23425930121342
H            6.39764132592545       -0.12171058751986       18.20146823810184
C            8.17565164939887        0.90365254348106       17.59488656086715
H            7.62511673990555        1.67180282924078       17.06199122128834
C            3.48039524401573        7.85145205481278       12.86596081591178
C            3.43176001909053        8.88928758934618       13.79966625371414
H            4.32338483774318        9.16132838577233       14.35472623643385
C            2.25367048708735        9.58148537262922       14.02652116713235
H            2.23411266287403       10.38068452681636       14.75908484567064
C            1.10684083596881        9.24883934803256       13.31794436672369
H            0.18344902296051        9.78995307533514       13.49117037776389
C            1.14279869927784        8.21572377567316       12.39005603623174
H            0.24845634206669        7.95191199573155       11.83638666227302
C            2.31891456009851        7.51422668241324       12.16887531610848
H            2.33352368382838        6.69771195254956       11.45526679858934
C            4.65258039897249        5.38666651508688       11.92706321206691
C            4.40352448512508        4.36479893606166       12.84653594084252
H            4.41411743070939        4.58573382043631       13.90775301955192
C            4.16813475634678        3.06749451281998       12.42680652743399
H            4.00773394535567        2.29325452831577       13.16997094817256
C            4.17236355986681        2.77049725282285       11.07047026411590
H            3.99621452582185        1.75521947859169       10.73345535977649
C            4.41640847094867        3.77668996606277       10.14434189299016
H            4.42563976640685        3.54776213961439        9.08419209709808
C            4.66146481045524        5.07637148038025       10.56629468864571
H            4.86940553301699        5.84807003847251        9.83335401749436
C            5.84862411881486        7.93382941178892       11.27147777577506
C            7.22753461198032        8.13801066815818       11.32942613998896
H            7.78605454510952        7.74214561029792       12.17073367229440
C            7.88533689916562        8.83986561727809       10.33224655468316
H            8.95762716193845        8.98998205903328       10.39490291387261
C            7.16852360303476        9.35086137323917        9.25916841408445
H            7.67924881220053        9.90069313832303        8.47666924032208
C            5.79362050409790        9.16451292420537        9.19482075740091
H            5.23005386512713        9.57030524401447        8.36198562545524
C            5.13512348640606        8.46527778235607       10.19489635083743
H            4.05911744288008        8.33951600276378       10.14442149913691
