285
 energy: -442.257558202527 gnorm: 0.000049716276 xtb: 6.5.1 (579679a)
Au           2.68125357556546        5.50163181879685       21.83129153577016
Au           1.33550240021018        3.62251094142177       20.36448772920928
Au           1.91582374283390        3.28018614365166       23.24564601396256
Au           0.00996318524442        5.25268373809089       22.36877178253701
Au           0.99753551347591        6.64727836008877       19.98008170486087
Au           3.53722371889431        5.27799276826111       19.25875150582703
Au           4.15217674952098        3.27032522940533       21.33041632796404
Au           3.22384147853976        5.64849600035911       24.40740073687736
Au           1.52876233040942        7.64258317222980       22.92540955123879
Au           3.57323399699308        7.86268794702274       20.86909120753774
Au           5.28833218102696        5.87101313370955       22.14059185179673
Cl           1.53821646750557        1.07308518912050       24.21179476342368
Cl          -0.65932015173377        7.61780922374668       18.40554440035180
P            0.01709983244255        2.09788218040282       19.08984341202681
P           -2.28910562221475        5.25740044263856       22.96481699430799
P            4.01892221446970        5.26176679720960       16.89788410217139
P            5.24667227540005        1.17679434354922       21.72159953683080
P            3.49635680456083        5.69887983885184       26.77740301258947
P            0.58200729461660        9.70190865671682       23.64606338462164
P            4.34245171908342        9.95027446336810       19.97805671333719
P            7.65312010116943        6.16898359083255       22.25724354018343
C            0.89721147098707        1.51740114304985       17.61031763949858
C            0.53412264654375        1.86249927483563       16.30870440040843
H           -0.37108751122715        2.43189055197011       16.13229749585314
C            1.32640957355694        1.47968647409496       15.23602616526847
H            1.03565243690138        1.75606229957477       14.22883592140368
C            2.48556054048002        0.74759595823237       15.44936503494361
H            3.10282459545132        0.44985512531621       14.60960032760094
C            2.85830350777477        0.40255828698373       16.74276449008506
H            3.76565416461783       -0.16510653117172       16.91698975596809
C            2.07627208864374        0.79335828229275       17.81536804185162
H            2.37486452003427        0.53615389900824       18.82630131689518
C           -0.42312193121204        0.56875408510389       19.96496980167407
C           -0.75019634276169       -0.62142821817626       19.30867815879696
H           -0.73264103938950       -0.66666479008631       18.22551041500805
C           -1.08015261220601       -1.75193139550393       20.04024988629647
H           -1.33687856671998       -2.66901576904459       19.52218205787805
C           -1.06990916476207       -1.71739486441428       21.42996592424628
H           -1.31954194227096       -2.60780235853201       21.99511758622782
C           -0.72792696526247       -0.54510604031616       22.09087289162329
H           -0.68521427962430       -0.51033752086222       23.17299087365833
C           -0.41332937703018        0.58915349858981       21.36018834807532
H           -0.14169777265123        1.49978636083706       21.87995517022412
C           -1.54907040733690        2.79442796128163       18.48185066126054
C           -1.71596911776778        4.17889311361147       18.54002531723745
H           -0.93134196456271        4.79487058912521       18.96114177360598
C           -2.86860657598330        4.78068208057308       18.06093439584860
H           -2.96301064771222        5.85937742848175       18.10404976284516
C           -3.88248709437517        3.99810657676557       17.52698227092713
H           -4.78665707560068        4.46129920599425       17.14940074339954
C           -3.73821955537242        2.61667950321469       17.48036648224271
H           -4.53168767177855        2.00200174326578       17.07055485268121
C           -2.58176558865130        2.01555747523870       17.95249191930168
H           -2.48222394093492        0.93688385880141       17.91102757146014
C           -3.07963729417653        6.81601083212429       22.47895808932767
C           -2.83387095079997        7.25553269996397       21.17376090150882
H           -2.24070115377172        6.64375285420491       20.50425215384568
C           -3.32544992707912        8.47104216182807       20.73024980590795
H           -3.11961281341601        8.79067657517648       19.71552560202232
C           -4.06169336367689        9.27408600488088       21.59142358129972
H           -4.43925094503109       10.23214423973765       21.25315756636714
C           -4.30706763581743        8.85049073607725       22.89033484128473
H           -4.87797894686287        9.47649329319957       23.56697736871583
C           -3.81851743689981        7.63094793253981       23.33652102554212
H           -4.00699622759819        7.31846364146958       24.35751024458281
C           -2.55893349963643        5.06501671597951       24.75063466772927
C           -3.82495408093962        4.85511662865036       25.30431026889171
H           -4.69198236668379        4.78971561637146       24.65647653997932
C           -3.97435951910194        4.71940844452048       26.67571451466372
H           -4.96078475663217        4.55921059982302       27.09563514307271
C           -2.86596801038180        4.78339112804929       27.51069493624313
H           -2.98659861867046        4.67421782081751       28.58229043160603
C           -1.60190818471651        4.97650048264434       26.96962299074032
H           -0.73066758680715        5.01567823957430       27.61377828350653
C           -1.45156797813064        5.11517815399081       25.59887874776737
H           -0.46267978561418        5.25794906599887       25.17655330536762
C           -3.28704800951248        3.93672981668904       22.21451425981281
C           -4.26952094847475        4.16671681960661       21.25133832612511
H           -4.52883284990311        5.18121405793915       20.97133970106437
C           -4.91830843621791        3.10002393599802       20.64712889804553
H           -5.68004564213452        3.29086518723753       19.89983155403698
C           -4.58992337804104        1.79588985037329       20.98867922029087
H           -5.09333577468687        0.96509861573809       20.50795200070072
C           -3.61147237991230        1.55719111768522       21.94536025164639
H           -3.34831429609320        0.54060815213151       22.21422456549071
C           -2.96017837294230        2.61858334054391       22.55044620616362
H           -2.19024438969328        2.42956641422640       23.29108946598685
C            2.52105806977434        5.42935417320783       15.87914210893540
C            2.55211425632762        5.91087324119760       14.56621852352913
H            3.49832475380236        6.17576373400266       14.10798059187839
C            1.37629322558082        6.07274151994378       13.85088277674451
H            1.41564791690661        6.44726444330749       12.83429087021784
C            0.15334902438819        5.77393540415976       14.43673402532312
H           -0.76540429114702        5.91932295007662       13.88067938454255
C            0.11006326549153        5.30051544196863       15.73989785034300
H           -0.84108358249713        5.08560234765257       16.21186715728346
C            1.28536622887644        5.12282113434767       16.45109714531013
H            1.24555559501915        4.75369519084006       17.46951393583908
C            4.81620848644105        3.71582681370657       16.35561381001473
C            4.86901173296926        3.30352855467234       15.02199272222374
H            4.40107700853352        3.90497783970534       14.25098720517740
C            5.51286625908661        2.12485553828633       14.67769936152543
H            5.54992262805479        1.81716522677342       13.63898621048591
C            6.11092672662402        1.34071669852375       15.65627520194024
H            6.61508473460860        0.42126280926386       15.38252153382121
C            6.05449550334742        1.73420486572697       16.98623952732720
H            6.51285187205127        1.12513613514711       17.75740622088011
C            5.40855043400322        2.91106918879453       17.33026652092419
H            5.35491455092668        3.21279369880131       18.37080324900916
C            5.07407051517476        6.58261302955068       16.21853608157089
C            6.33109641020616        6.36271141161000       15.65519675744714
H            6.71293770657853        5.35264771164947       15.55933331855754
C            7.09183946773898        7.42928291229634       15.19723700946287
H            8.06619320681118        7.24354273779587       14.75964506977264
C            6.60624104269482        8.72603295004587       15.29085468635570
H            7.20134814978930        9.55684544740336       14.93009547751450
C            5.35641507252295        8.95654786905005       15.85161586500993
H            4.97304681834190        9.96762524976326       15.93012229180394
C            4.60034009339277        7.89540801860587       16.32037766209517
H            3.62690168454010        8.07973845048171       16.76304192315432
C            4.47185363708107       -0.25331892008097       20.91929379976959
C            5.05198174071873       -0.89205100041044       19.82125159634360
H            6.03823926070112       -0.59468487162096       19.48178181350686
C            4.37813975508157       -1.91217112645363       19.16633541391318
H            4.84148912889441       -2.40459378845913       18.31880246543539
C            3.11898490206874       -2.30534241966823       19.59955378529507
H            2.59419849220150       -3.10461973866731       19.08905972815791
C            2.53255284797002       -1.67134882536168       20.68747733875378
H            1.55188232937382       -1.97927945292727       21.03020882000946
C            3.19428069772760       -0.64268787431549       21.33773218681580
H            2.72286316181274       -0.14396660264857       22.17859225291584
C            5.20591770185602        0.79313746387091       23.49810618118725
C            5.31482770784764        1.86003023622008       24.39372751346483
H            5.37617258055839        2.87434670214554       24.01395656643761
C            5.33736937356413        1.63808859268280       25.76002062162058
H            5.43333994649176        2.47673370369528       26.44038401768055
C            5.22544813952377        0.34562728108803       26.25389333963151
H            5.23113451241536        0.17260214024624       27.32383180194834
C            5.09277364616804       -0.72025443186563       25.37549675979257
H            4.99194705313739       -1.72961393127024       25.75749526394037
C            5.09051658154329       -0.50242163686692       24.00603127673919
H            4.98611681467585       -1.34273058464904       23.32943347701686
C            7.02066730426820        1.04413057384304       21.31708229056769
C            7.84210490465055        0.06362632702988       21.87896852647919
H            7.42120683166577       -0.66605817171944       22.56170503579047
C            9.19329192399336        0.02091334341968       21.57334576437124
H            9.82105927039216       -0.74259931673047       22.01830941388852
C            9.74289591690329        0.95245287662681       20.70191296051661
H           10.80013177584162        0.91771632403054       20.46573592404676
C            8.93646282264435        1.93043392280670       20.13753839564453
H            9.36008578404095        2.66128779903033       19.45803473552123
C            7.58610335466208        1.97863012067868       20.44835341260561
H            6.96053714760318        2.75527292259380       20.02170113345679
C            2.28873241076918        6.74118311434404       27.65314802862908
C            2.11912446801141        8.05842157667679       27.21563909028107
H            2.73422403964876        8.43531671449423       26.40493310399384
C            1.17552142036752        8.88304377195043       27.80655009955091
H            1.06019258872824        9.90454402383533       27.46212392751986
C            0.37084274505376        8.39781031360206       28.82955235068746
H           -0.37453229378131        9.04004335064756       29.28406748363761
C            0.52156254872196        7.08825977521617       29.26330040813349
H           -0.10405443267042        6.70455654930245       30.06107329514461
C            1.47444921476069        6.26419234248320       28.68163303653166
H            1.58923175074177        5.24532133860387       29.03292810338323
C            5.12403580254149        6.31672664879237       27.30172453580235
C            5.30671406956025        7.39698227656269       28.16556082846037
H            4.44837435683297        7.87547045066867       28.62299788596102
C            6.58236941498290        7.86582084479676       28.44428876868293
H            6.70943485429958        8.70762168471976       29.11548721443944
C            7.69098192759844        7.26017496933540       27.87057947805380
H            8.68701385543955        7.62643168712246       28.09080731313324
C            7.52108909744056        6.18260893075217       27.00946821281610
H            8.38423235727859        5.70338144848087       26.56195845180978
C            6.24786041984619        5.72216285548624       26.71783862246956
H            6.11811247530655        4.89252950548370       26.03004000408137
C            3.32274577461180        4.06562722130594       27.54888329404109
C            2.39037936123161        3.18813615593647       26.98832500795158
H            1.80398929812489        3.50614299938250       26.13387919347890
C            2.21789146566508        1.91381956663573       27.50001212994929
H            1.50952222023279        1.24197822963705       27.03010268899751
C            2.97266895825508        1.50100731155542       28.58970802427836
H            2.84292296829485        0.50383255491295       28.99399332317026
C            3.90087698420410        2.36435091255046       29.15854726242931
H            4.49327990091538        2.04231333852642       30.00754101013211
C            4.08176716787784        3.63874928120867       28.64189475656541
H            4.81465401907008        4.30378524454057       29.08484855778605
C            1.75210016602538       10.67468740610368       24.64827055238232
C            1.36305234313408       11.71278431057745       25.49868834540976
H            0.31969218767422       12.00143736345490       25.55782029026568
C            2.30226013203196       12.37002880565962       26.27993635912495
H            1.98755842516728       13.17625387490463       26.93255382421195
C            3.63713911836042       11.98985094558121       26.23906595658794
H            4.36572564685854       12.49566052121165       26.86189805916369
C            4.03467342633818       10.95554870268051       25.40277291598040
H            5.07345477442376       10.64630724304650       25.37060024028407
C            3.09958695983225       10.30947665490583       24.60974366228092
H            3.41429117442898        9.50519221699164       23.95353995184676
C            0.14563187828870       10.75411572163717       22.23141107235468
C           -0.31807959327045       10.10454374417904       21.08460661889414
H           -0.42210494074381        9.02582372575611       21.08546119839184
C           -0.64260328860739       10.81937885334262       19.94459098363684
H           -0.98795459650546       10.28927549521982       19.06490709278136
C           -0.50952597113564       12.20089766286380       19.93510543316699
H           -0.75453304129093       12.76511308290802       19.04275220128521
C           -0.05713062692542       12.86023764639706       21.07088562829639
H            0.04387502974458       13.93977930770686       21.06850926464575
C            0.27283717475319       12.14448270021685       22.21319182441857
H            0.64175931643042       12.66811747237223       23.08797363662183
C           -0.92196763266395        9.66441210033429       24.67278585228691
C           -1.89620876862510       10.66412235326922       24.64519860711378
H           -1.79282015613431       11.50216879016952       23.96521093253770
C           -3.00191566760990       10.58586779881338       25.47893368248914
H           -3.74987974342833       11.36997031410383       25.45302631659020
C           -3.15108076706785        9.51042769354654       26.34487532136771
H           -4.01524683418684        9.45346308380930       26.99639801063703
C           -2.19507421860983        8.50366885097657       26.36841648788196
H           -2.30784965871465        7.65807370238668       27.03746019190040
C           -1.09131964301488        8.57834163660776       25.53391807694699
H           -0.34774366320653        7.78842684411859       25.54859547723910
C            4.37513446556626       11.37805730910939       21.10411885128672
C            3.40368828181803       12.37892942474666       21.07041871906106
H            2.62380266378160       12.34997112807777       20.31814184465663
C            3.43386339463478       13.41780145669233       21.98913321868422
H            2.67832551298943       14.19389477926921       21.94612952401968
C            4.42994930913275       13.47066176194498       22.95341775710782
H            4.45371528818536       14.28515482662292       23.66799674377414
C            5.39601222256767       12.47359158733770       23.00213733227081
H            6.17850285211207       12.50987964071090       23.75176489580805
C            5.36225484861652       11.42867351689183       22.09371195339642
H            6.11431758736834       10.64831871694697       22.14180747137217
C            3.35612696031410       10.50735675631997       18.55499172957788
C            3.72129689062855       11.59790577455284       17.75832808452823
H            4.61606711226444       12.16454973605645       17.99119649141411
C            2.94291797496621       11.95775753461952       16.66919894400353
H            3.23463740999105       12.80610522148236       16.06045140583096
C            1.79714248955474       11.23612675970221       16.35445451389918
H            1.19709503351438       11.52101333609827       15.49807687328020
C            1.42612762573803       10.15257096640628       17.13644813489963
H            0.53705967281837        9.57658855827094       16.90740281186051
C            2.20146498191938        9.79591980568560       18.22813606877131
H            1.90221104396847        8.95388007418997       18.83899214219350
C            6.04670206955872        9.90746474194115       19.33042089780567
C            6.85761573410643       11.04182605048874       19.23904390539281
H            6.49096194979237       11.99947140089043       19.59009839297442
C            8.13605513202291       10.95299118305234       18.70997107412617
H            8.75311860666191       11.84184681618018       18.64550452813638
C            8.62247585985056        9.73338355185763       18.25832327484234
H            9.61945556951626        9.66563406489496       17.83885165716378
C            7.82717814834559        8.59895403568828       18.34793617426032
H            8.19823711274765        7.64552278207456       17.99100943394351
C            6.55266779485150        8.68491682781653       18.88629892697892
H            5.93705096155065        7.79461348347641       18.95952120261772
C            8.48802748738339        5.82146416440365       20.67703137118725
C            9.87538073031097        5.89951933661652       20.52700149499701
H           10.49036202417226        6.21598957118865       21.36231100920493
C           10.46988016364255        5.56700834696678       19.32011330832225
H           11.54638112496461        5.63554928319303       19.21376041288946
C            9.69218786051241        5.13649200335948       18.25193041533011
H           10.16010406180203        4.86890361246306       17.31181273176930
C            8.31358675572623        5.04693853894941       18.39289304337334
H            7.70079556359554        4.70164549394714       17.56844349690941
C            7.71718078499326        5.39187832109013       19.59655926281241
H            6.64007131358957        5.32748356068750       19.70268732354754
C            8.56180052484663        5.07463596427500       23.39377837713213
C            8.13951229783523        3.74455463273450       23.45253235055739
H            7.30456085949082        3.42708077673830       22.83727765562188
C            8.77579066195675        2.83325691445661       24.27804995129516
H            8.43332869107365        1.80498429090931       24.31015529110293
C            9.84584892471438        3.24285663087122       25.06270126589526
H           10.34448355002371        2.53453214315556       25.71392458407610
C           10.27562822237420        4.56237265598722       25.01226607182292
H           11.11338454750431        4.88390001747081       25.62040033801999
C            9.64052693128601        5.47639842202999       24.18253785912434
H            9.98320775511985        6.50434407722430       24.15092688953497
C            8.13388931141855        7.85376106012676       22.72999559220057
C            7.76709185920890        8.28915843535700       24.00879900295648
H            7.30677782210220        7.59065193690591       24.70048187302580
C            7.98656518317891        9.59957708283838       24.39799529814564
H            7.70679243396455        9.91967562617705       25.39555518290884
C            8.55728372531678       10.50240555095048       23.50834677623551
H            8.72708652562769       11.52929405429134       23.81052898365330
C            8.90496726739281       10.08634755425926       22.23021588177413
H            9.33991080718252       10.78906686025312       21.52843872041920
C            8.69408148040713        8.77156655484790       21.84112794748174
H            8.96450277115153        8.45875748168725       20.83900128535138
