281
 energy: -413.902232533797 gnorm: 0.000037728335 xtb: 6.5.1 (579679a)
Au          18.53020787841044       16.12693094334835        6.61997067235312
Au          19.39777954787423       14.14044441217455        8.73617354163417
Au          16.26042243596976       14.52529904971141        7.46118001588952
Au          17.67984526394723       14.77273649699085        4.16179976486504
Au          20.80375265997268       14.57428772721653        5.75613703693749
Au          17.32282365278972       11.94949778704859        8.32708628068034
Au          16.13524754710869       12.52668561212175        5.29677274166486
Au          19.58777740973342       12.54075108891961        4.03657208302583
Au          20.66156067384771       12.00179109094315        7.14342639983134
Au          18.35273556388686       10.68578112214363        5.88738917529752
Au          18.45622523592272       13.38519932147392        6.34041359472429
P           18.40118388790540       18.52616024327101        6.71604945363794
P           20.06003749662274       14.82807660386672       10.94296664739739
P           14.32334670426726       15.61734803185786        8.36398689515156
P           16.81300033828844       16.28688127542912        2.52009441483537
P           22.90514303263393       15.51427295203991        5.08820938724651
P           16.47029804221673       10.67523834746559       10.17617851107831
P           14.09918019557066       11.84536789312913        4.22481666997304
P           20.54884858577268       12.08988411542107        1.88422902956742
P           22.51213261251162       10.58568195615902        7.75822667791367
P           18.20867451100370        8.29490045951781        5.71102117691464
C           19.88148105243357       19.44543611427852        6.19573663536462
C           21.12570511211045       18.88879191205743        6.51009801487489
C           22.30173178840365       19.54696390661708        6.18534427146592
C           22.25356201739418       20.76483779094961        5.51932503878787
C           21.02619793045099       21.31657064530296        5.18081449748699
C           19.84779676097225       20.66671235685928        5.51789974837488
C           18.06657218294869       19.14511684548856        8.39480404495276
C           17.63321182347429       18.24593111565134        9.37134720038490
C           17.38669106043368       18.67243230525888       10.66720367805996
C           17.56792664405867       20.00686217688136       11.00387042405116
C           17.99667687021546       20.91101038648096       10.04101708754672
C           18.24766336332189       20.48586500973938        8.74589462414076
C           17.02461228533233       19.26438768288121        5.73582233233466
C           20.56426864732140       16.56846947657646       11.12871065291646
C           20.93440873171627       17.09999829391259       12.36843722229434
C           21.34144967511427       18.42001181594436       12.47213773154272
C           21.39888333298546       19.22560726144255       11.34191164753826
C           21.04530197424487       18.70620532537074       10.10520395566425
C           20.62843681441155       17.38765971326313       10.00108923043440
C           21.50678688687137       13.94509288949491       11.60319941414912
C           21.64375231782504       13.51948051667898       12.92619468189612
C           22.80708957389849       12.88691144460188       13.34192736504721
C           23.84950339397019       12.67599262867272       12.45032920764391
C           23.72358246825859       13.09114492779761       11.13040617544585
C           22.55873995912592       13.71386816798596       10.71164934252139
C           18.74173973901740       14.61423333074683       12.21297069882358
C           12.80711266555504       14.61409202909419        8.32781722403009
C           12.91145800299379       13.22275886387324        8.28030506259190
C           11.77319545284454       12.42993583034397        8.29270020499841
C           10.51616518312781       13.01653851700337        8.34580635813881
C           10.40056180011655       14.39984699116195        8.38982449581337
C           11.53575275152800       15.19449511348157        8.38420321057686
C           13.86724543406113       17.12492866599815        7.46173799764829
C           13.29474990747212       16.98274392470745        6.19253725581242
C           12.96738590192422       18.09573921911771        5.43557199893285
C           13.22616502257368       19.37032943004967        5.92484211935875
C           13.81855987134671       19.52315241119387        7.17109081585518
C           14.14199801364196       18.40997441453635        7.93474442284487
C           14.39198514806742       16.12612901659825       10.13481370081432
C           17.77552917167424       17.81317002455101        2.30022676908406
C           19.15207084475696       17.75033936815943        2.53957971356631
C           19.94763732994886       18.87557554068611        2.39654189774400
C           19.38017449798504       20.08687523654610        2.02502391471100
C           18.01400401642050       20.16616274022122        1.79427738213448
C           17.21571470413753       19.03980914428510        1.92853188626340
C           16.58964969745965       15.59117481779571        0.85525726203773
C           16.39447215081715       14.21040759540720        0.74957987693163
C           16.19703129125532       13.61898730864374       -0.48807190183252
C           16.20994908086117       14.39679290465859       -1.63824876042617
C           16.41716738741419       15.76636838686504       -1.54587796694341
C           16.60446461433369       16.36355228358564       -0.30837474671808
C           15.11599487640931       16.87726839931586        2.93847226910446
C           23.82799713761294       16.19076287583001        6.50430109251039
C           23.22847988878242       16.15425913340166        7.76546859308433
C           23.88287422154143       16.65661303204428        8.87945951802231
C           25.15135891758403       17.20353548277191        8.74881651277495
C           25.76105965258828       17.24435516438184        7.50129084007377
C           25.10792009304284       16.74159878989747        6.38649763471140
C           24.05237393756924       14.34174051857262        4.29805116385250
C           23.84846779073492       12.97788756796983        4.52237454509580
C           24.70711768318035       12.02992459283923        3.98778967500063
C           25.77742042012667       12.43117699517329        3.19971845905829
C           25.97945823879216       13.78148947774798        2.94921554805251
C           25.12862130034107       14.73082533549109        3.49463172767074
C           22.83643845239423       16.92787677466561        3.90695805002925
C           15.01603263738518       11.40774460901209       10.98068697395626
C           15.19488400504909       12.55900304637657       11.75626254299633
C           14.11166758699187       13.19055440602883       12.34576140159090
C           12.82788797931035       12.69510936292562       12.15239272200621
C           12.63613526293296       11.56525792963835       11.37067901723019
C           13.71966310577776       10.92596607786541       10.78569080335848
C           17.68518195942210       10.53676892920383       11.52193387588684
C           19.02975582073551       10.80774611228801       11.25888179999281
C           19.98519233481280       10.67302500083995       12.25466398297480
C           19.60902033756174       10.27263035976180       13.52938571719851
C           18.27433858415435       10.00633313988701       13.80474507076652
C           17.31810105338893       10.13473442501501       12.81008676655875
C           16.00865079117307        8.91150953785097        9.89017865767812
C           13.10181382043604       10.66909609564804        5.18502465129459
C           13.63097949597880       10.12138950086996        6.35485589785999
C           12.89362065378244        9.21855769286718        7.10628306251848
C           11.61880490161856        8.84962837370116        6.69792827319762
C           11.08371769457319        9.38596638726300        5.53384581060074
C           11.81706201551696       10.28917028336965        4.78185002145786
C           12.94007004458204       13.19127114103356        3.83843196784213
C           13.01413860285875       13.89584883804286        2.63309626551117
C           12.15728603482816       14.95908483917263        2.38595399607817
C           11.22771528191834       15.34672821624919        3.34196077234166
C           11.15845727264680       14.66641520283128        4.55079215642328
C           12.00964133841764       13.60058152176997        4.79853905921156
C           14.30856239560115       10.98419408416451        2.60607156516106
C           19.33079028164255       11.38544140002699        0.73518399829149
C           18.23499837939188       10.69552691913233        1.25894176875624
C           17.30306447206474       10.10744893570747        0.41802987736678
C           17.44872958475754       10.21041301710552       -0.95939889540743
C           18.53005477097116       10.90152034082645       -1.49138748378706
C           19.46736602680321       11.48346489022175       -0.65290449567300
C           21.04014118382836       13.65979699175292        1.11787862143262
C           20.03237273407467       14.51837368529477        0.66532700953637
C           20.34043855807397       15.77429497334961        0.17004177285520
C           21.66154903575185       16.20270259689886        0.13446267035672
C           22.66956062270652       15.36565103127514        0.59415142651813
C           22.36350265958476       14.10439971470307        1.08603570780435
C           22.00897495093527       10.98317697933918        1.66309598014341
C           24.17655708442777       11.28219754750448        7.50962330580383
C           24.35873690341448       12.66312070563234        7.61789930038501
C           25.61973657054590       13.22181813910946        7.47677531458886
C           26.71321307084125       12.41047202030343        7.20772063253289
C           26.54208905007581       11.03829687133901        7.08473899557522
C           25.28489262206464       10.47490031803210        7.23844967936963
C           22.55175589232544        9.05445571946732        6.78070018314845
C           22.44837387819274        9.19137872280970        5.39193864124088
C           22.51030362237250        8.08298236169755        4.56306832219398
C           22.64723967339901        6.81276000882076        5.11161490287039
C           22.71595308780662        6.66174902073298        6.48884946905520
C           22.67428931232595        7.77234511299936        7.31943610382115
C           22.59745519807418       10.04093112130567        9.51710187138146
C           16.52662312570210        7.60833569895412        5.60902030462122
C           15.78359400628204        7.83456569939711        4.44557995660092
C           14.49287802872552        7.34542822738153        4.32666114595889
C           13.91894208687630        6.63482167710620        5.37275109746943
C           14.63918834841274        6.42234402475387        6.53998723603237
C           15.93267668533959        6.90828070687968        6.66123172718036
C           18.95526557728681        7.44905269290116        7.13562003530097
C           19.19544620309114        8.18743988610664        8.29730283168223
C           19.71735931388981        7.58297522027219        9.43086391122120
C           20.02954666563095        6.23022348083186        9.41235483671567
C           19.81011512237803        5.48720834794075        8.25995534986295
C           19.27024866879973        6.08649800526180        7.13243282560198
C           19.02632554433949        7.54698018748473        4.23661569942152
H           21.16864972736185       17.92736109846366        7.01167240095371
H           23.25636432344278       19.10818490419512        6.45245107363320
H           23.17136758069847       21.28014733103813        5.26261380813023
H           20.98259936186971       22.26371191724486        4.65593046153585
H           18.90027777532282       21.11683021163384        5.24732329674985
H           17.50249390242180       17.20019865839692        9.11139590421704
H           17.06535052648583       17.95915915744123       11.41805297501539
H           17.38064283737063       20.34076561386271       12.01743651006479
H           18.14232468957273       21.95275915270762       10.30140595437852
H           18.59395507860446       21.19645620353100        8.00362564124844
H           20.90941543043460       16.47579222412802       13.25478006864728
H           21.62123039606215       18.82077120463346       13.43929211991497
H           21.72205771830825       20.25642100036636       11.42517956516571
H           21.09008501807854       19.32863923959469        9.21860755111281
H           20.34391783718064       16.98443827269504        9.03449983060059
H           20.84328804871173       13.67843027144012       13.63871459055807
H           22.89988093043337       12.56318206955689       14.37200310292934
H           24.75867232083047       12.18895753514845       12.78201700540152
H           24.53395469535579       12.93532702534669       10.42717908229233
H           22.45608138264687       14.03046723337495        9.67873616478031
H           13.89180965704363       12.75877068710458        8.23451200006421
H           11.86993016166832       11.35108558792406        8.26011518919160
H            9.62822116574862       12.39571429978223        8.35211182266351
H            9.42160720340741       14.86243023839028        8.43280457259082
H           11.43695414119047       16.27348268002666        8.42033534898041
H           13.09075506950179       15.98913983675445        5.80660187185777
H           12.50034340030042       17.96733669490236        4.46555469270905
H           12.96559934236609       20.24180219221053        5.33623079222372
H           14.02461891709938       20.51469925926353        7.55714294484859
H           14.60393950414988       18.54766023986576        8.90551513256899
H           19.59767653051860       16.80672821807435        2.83890217230465
H           21.01437550836769       18.81027405326841        2.57642628254078
H           20.00260307932499       20.96714604093866        1.91693671257569
H           17.56537080920503       21.10905381486500        1.50449279584481
H           16.15153509644061       19.11969811489098        1.74149539092564
H           16.40332639762622       13.60002471042641        1.64774965899728
H           16.04209051342682       12.54806106259353       -0.55448946544927
H           16.06265724305561       13.93395324282239       -2.60678794086578
H           16.43252928308278       16.37506691186130       -2.44227324341393
H           16.76448765409399       17.43397206891400       -0.24566245865531
H           22.23679920948747       15.72620489821079        7.86949909364246
H           23.39959678705559       16.62043185842287        9.84892621747548
H           25.66567539937665       17.59623549441000        9.61779130128798
H           26.75238313207504       17.66892474030671        7.39509843673885
H           25.59856731453675       16.77397902888055        5.42058805317173
H           23.00727121173913       12.65949752313148        5.12944730217509
H           24.54798887770361       10.97818889485133        4.19745914519875
H           26.45055956179145       11.69294510320122        2.78060720994909
H           26.80885929729762       14.10038848110033        2.32898520440570
H           25.30637296119012       15.77943901979684        3.28826769200695
H           16.19566113669270       12.94999862575312       11.90892660419120
H           14.27038008296279       14.06314646392941       12.96901062380024
H           11.98039208023658       13.18771712351240       12.61372912916845
H           11.63730591085854       11.17385283426723       11.21695016364002
H           13.55165390984265       10.04249520312754       10.18075973067839
H           19.32613081156533       11.12807144169581       10.26498085018549
H           21.02511304911857       10.88673827505322       12.03681537013111
H           20.35610130384385       10.17007995136140       14.30750547328823
H           17.97649168644084        9.69532992762300       14.79911733204962
H           16.27777658035802        9.92600892882312       13.03302013653436
H           14.62763587768871       10.40735704444835        6.67620937865901
H           13.31753337758017        8.79554259262610        8.00982734085978
H           11.04376974912277        8.14489470162580        7.28659389145739
H           10.08952877782379        9.10012480430530        5.21133655857089
H           11.39005484793851       10.70841236294697        3.87771729056788
H           13.73435284660587       13.60731642754458        1.87558054984477
H           12.21292962904951       15.48173252406240        1.43799256376828
H           10.55609889523459       16.17334884867586        3.14328431605807
H           10.43455454018112       14.95944506754142        5.30259208720896
H           11.94391069621295       13.06832267777446        5.74059661968701
H           18.11648782039363       10.61990156636213        2.33562095150485
H           16.46368847280013        9.56485840219617        0.83823300627417
H           16.72173505972321        9.74961619751079       -1.61749127137470
H           18.64585605052737       10.98391415500412       -2.56565156144695
H           20.30981541139205       12.01962803760621       -1.07513389926986
H           18.99934928744573       14.18858357126003        0.69527516882794
H           19.54688510942544       16.41969632144540       -0.18955003995381
H           21.90438165608967       17.18495266234918       -0.25306886089306
H           23.70327093386471       15.69044631530206        0.56242004433896
H           23.16334252363964       13.46509408749463        1.44088646675786
H           23.50215531798932       13.30305428624437        7.80379101421172
H           25.74765902553932       14.29396308467242        7.56847918998896
H           27.69735742048673       12.84832573451223        7.09079052373911
H           27.39226004513151       10.40124332844641        6.87109459909604
H           25.16184485094220        9.40189592801084        7.14496192283874
H           22.32249516855763       10.18044915906156        4.96250196567602
H           22.46182943292830        8.20999931128700        3.48737504470166
H           22.69792837157288        5.94490322195630        4.46510042500748
H           22.81207023451253        5.67338584953231        6.92285939475326
H           22.73929664040691        7.63317346202265        8.39178890938947
H           16.22764169752447        8.38786437910608        3.62417794730999
H           13.93411769325198        7.51648947823508        3.41371897237837
H           12.91078526098962        6.24948478278899        5.27824340100624
H           14.19603481625637        5.86880337613924        7.35959668985817
H           16.48989662396466        6.72703725360553        7.57322830229450
H           18.96938702435362        9.24888604143951        8.30902776281968
H           19.87348756757274        8.16833464477805       10.33026916170818
H           20.44067807919124        5.75578686908740       10.29537474740323
H           20.05188987402389        4.43104734176712        8.24135821971613
H           19.08948000294146        5.48985679197162        6.24592076991330
H           16.86809364081018       20.31979508818566        5.95576907271103
H           17.21754204537790       19.15184239625151        4.66962658394395
H           16.10414922157511       18.73158602150282        5.97049146172298
H           19.00900286688501       15.01914323489774       13.18799403738335
H           17.83886569373842       15.12011332840664       11.87142127155895
H           18.51275032550183       13.55488911150804       12.32615267427324
H           13.49403447001603       16.66231777103380       10.44134632288704
H           15.25925948825578       16.75575302146564       10.32325994011259
H           14.48637754565441       15.23169799936033       10.75052176579254
H           14.65745963090236       17.45653739896777        2.13806553454557
H           15.14564907304718       17.48535406141185        3.84203561477526
H           14.48215848134671       16.01360822704117        3.13693704520563
H           23.79989637573685       17.41534343433328        3.76438992149236
H           22.13520624175742       17.66973241474826        4.28642502087815
H           22.47625476090341       16.57894216657632        2.93936119099512
H           15.55374715222469        8.45790166779542       10.77042839054426
H           16.90560260250126        8.34683445293668        9.63689436108932
H           15.31657758029489        8.82824329943620        9.05405438977039
H           13.35459623342400       10.78478208409229        2.11868638788685
H           14.92491490425474       11.58151663977196        1.93628175048500
H           14.81823378151898       10.03621123642008        2.77048249967920
H           22.36333873683923       10.97880158872026        0.63238509210639
H           22.82501641380428       11.29529007886921        2.31337279974387
H           21.73046892834739        9.96572535628617        1.93630707359291
H           23.47995189093089        9.43577124783399        9.72268493806236
H           22.63626533497391       10.92392345614588       10.15483953099470
H           21.70849622228794        9.47150448933690        9.78201877190529
H           18.83623911515552        6.47791297949266        4.14884987072090
H           20.10185686935813        7.70771455788317        4.29867955830532
H           18.66611524863266        8.03461979556407        3.33147472510986
