279
 energy: -412.117812372620 gnorm: 0.000525687436 xtb: 6.5.1 (579679a)
Au          22.17322671667533       19.11503583221724       15.78651534219581
Au          18.67173175085549       20.71020426701474       16.81038843685436
Au          17.60035792397970       17.75123334262146       16.95173840608608
Au          20.12098229744788       16.17255592757656       16.08098186740822
Au          20.50207212091454       21.07561079939927       14.47357707314121
Au          17.04130389299757       19.50724778536491       14.57834193422192
Au          18.18070853334413       16.80960851172227       13.96218710167502
Au          21.16457726275036       17.38927890850756       13.58426820040388
Au          20.25469193535613       18.43326971460653       18.05068578242043
Au          19.10239678992840       19.25821411240640       12.53295213126273
Au          19.56469846119906       18.72230759922794       15.31974796959465
P           24.49614869978006       19.23225999906942       16.32359348395904
P           18.17744139178431       22.64551706163190       18.09985381042770
P           15.67636191271148       17.21667214189265       18.31067718633035
P           20.93346360538494       14.10420585319815       16.98022713632604
P           21.05838395839552       22.97700947954849       13.16055350363217
P           14.85674911079639       20.37729541020563       14.04838457335330
P           16.99922260415234       14.96053280088958       13.00525211691724
P           22.96461087581664       16.92363255690538       12.07327369242785
Se          21.22767436269442       17.71578723328303       20.19057119825832
Se          19.63104487380387       20.03389033421348       10.25730619498862
C           24.84978458063817       19.81072918403144       18.01331659587197
C           23.78449265622532       20.06628863420812       18.87764018109004
H           22.76979285378563       19.89541217960366       18.53799529497134
C           24.00851961772922       20.51781424981653       20.16929490419877
H           23.16628210055980       20.70162413255811       20.82686933357425
C           25.30656268430065       20.72734253500616       20.61137175028841
H           25.48712449847327       21.08105615904082       21.61982537597073
C           26.37660715273494       20.48368815348206       19.75856455278036
H           27.39169162531115       20.64936636358767       20.10126295095629
C           26.15392138561491       20.02989496814402       18.46857584544750
H           26.99472317594829       19.84812945200676       17.80778663043498
C           25.39769892346722       20.44761124229863       15.30943785447074
C           25.09829409573700       21.79649171576289       15.53774350122231
H           24.43182893998073       22.06565995153312       16.35124548182737
C           25.64241429472065       22.79031351209917       14.74223279084836
H           25.40694453568780       23.82961096276924       14.94149863599293
C           26.48488793223895       22.45550805572445       13.68883017062402
H           26.90918578109777       23.23209268641520       13.06336165026905
C           26.78005141999216       21.12199843917879       13.44328776721980
H           27.43755600149014       20.85237324610326       12.62457558299910
C           26.23993333852517       20.12520718184111       14.24414154017257
H           26.48955049164366       19.09193577316404       14.03344326510402
C           19.69584354314256       23.28653302048214       18.87861696966972
C           20.92841347933166       22.77749310842148       18.46675316607289
H           20.95735402727677       22.00175509980130       17.71013509931253
C           22.11099833555893       23.24195072313440       19.02191060224161
H           23.05818429762916       22.82744830977224       18.69526056430606
C           22.07606847077885       24.22209336126972       20.00388757319111
H           22.99829606819519       24.58256717559523       20.44458260885978
C           20.85582483311813       24.73371093204913       20.42668030476723
H           20.82462632225927       25.49452010749369       21.19812514375197
C           19.67299122298883       24.27004830515381       19.87121602857616
H           18.72461015165045       24.66876929435393       20.21459979306178
C           17.05383104672079       22.36987061021694       19.50474184019004
C           16.07816907901982       23.26632053973334       19.94541123371341
H           15.95307785598190       24.22579526159493       19.45776790613451
C           15.25636451251195       22.94066483232842       21.01541250841354
H           14.50084404543799       23.64592865195327       21.34266469750344
C           15.40080225879229       21.72397100790036       21.66679294640261
H           14.75925740899016       21.47588007499058       22.50435074726995
C           16.36815230156123       20.82425646835314       21.23958861843502
H           16.48929148331978       19.87299304264258       21.74430456269836
C           17.17688380102484       21.13984543796559       20.16118351436906
H           17.91956859623781       20.42565449712388       19.82244775463266
C           14.37614790890444       18.49332586133275       18.27258861281469
C           14.80549904342276       19.81583528768449       18.13075298693311
H           15.86417466895027       20.02048743098481       18.01319519897305
C           13.90168440991967       20.86451131006285       18.15153519561715
H           14.25734515395907       21.88545749490422       18.06793229158621
C           12.54460189204610       20.60751248330465       18.29430296430641
H           11.83421980467651       21.42583532813780       18.30844676466929
C           12.10264122734604       19.29791669255540       18.41806947228867
H           11.04405829945267       19.09048026862500       18.52541365122457
C           13.00909912425645       18.24739213111904       18.41244822602312
H           12.64345189591982       17.23263145208900       18.51650169865788
C           16.09160390077478       17.20065954207671       20.08587127736163
C           17.43048608892952       17.15699959514470       20.47134286981470
H           18.20692356712878       17.12055323891945       19.71579538480463
C           17.78478718746193       17.17014381067142       21.81145768862617
H           18.83265540500076       17.14946971973963       22.08650919490992
C           16.80177798982692       17.22785137895784       22.78851093372354
H           17.07656252228367       17.24589072515559       23.83665730044734
C           15.46268526574209       17.26762832873280       22.41831562717171
H           14.69028730183232       17.31474713821338       23.17752149829862
C           15.10811327919010       17.25551343464323       21.07881117156192
H           14.06039041292434       17.29993074911070       20.80138767139550
C           19.89880249480533       13.50396278028050       18.34821922598780
C           19.76343113191489       14.30287515789597       19.48929536610884
H           20.35673135116663       15.20603035478599       19.60034859039767
C           18.86274498784549       13.96150601480151       20.48459082330335
H           18.77238586156465       14.58802770828741       21.36465234666812
C           18.06698198270979       12.83103680218352       20.35122169122839
H           17.35465570845416       12.57254422608647       21.12610413713786
C           18.18470896769318       12.03672199051731       19.21925648260175
H           17.56587378538869       11.15369056312045       19.10659118557041
C           19.09137225293223       12.37022795434292       18.22394111297100
H           19.17144749226532       11.74318873401865       17.34306451606924
C           21.05002802962924       12.70943343920633       15.81686086742447
C           20.56240680088357       12.89993500872007       14.52263588171213
H           20.10722981169637       13.85025716076064       14.26591628219854
C           20.65929522529871       11.89777904178873       13.56949553288034
H           20.27813772399187       12.06636557366250       12.56842600537996
C           21.25214941004272       10.68712673271019       13.90008457431458
H           21.33415580245962        9.90191153516933       13.15755790729689
C           21.74272320692186       10.48402140562351       15.18379659441756
H           22.20633933608442        9.53916253778639       15.44332269369572
C           21.64410734824718       11.48560553023852       16.13769667421315
H           22.03049891216954       11.31785459553625       17.13675882053866
C           22.11926458056005       24.22870927022354       13.94472146351794
C           22.23927739417775       24.19800489033027       15.33552301494724
H           21.69386319261322       23.44747891240657       15.89759918355605
C           23.04397692381114       25.10985809005680       16.00013362538051
H           23.12166170676160       25.07337801550987       17.08110284647143
C           23.74949596242903       26.06311731504410       15.27794632557219
H           24.38409987647529       26.77501082404309       15.79282830337577
C           23.63788496151009       26.10510739207203       13.89356441434790
H           24.18566566858667       26.85050311108045       13.32840587952739
C           22.82648573207279       25.19846966277809       13.22936848840585
H           22.74079466887540       25.24553366587867       12.14958242345858
C           19.63694025321217       23.90388030581062       12.50799637330934
C           18.82911576424597       23.33555822705123       11.51790070353097
H           19.11443185061955       22.39690131894814       11.04864226790047
C           17.65114847966207       23.95331418967189       11.12965378591636
H           17.03758836072606       23.50070884607957       10.35858969298279
C           17.25386364388336       25.14249526863929       11.72740009934737
H           16.33050325769277       25.62266372761065       11.42478511878600
C           18.04421542675673       25.71272744573384       12.71663732448802
H           17.74037344677077       26.64023953155538       13.18865922020319
C           19.22307318408594       25.09642818446605       13.10965686995603
H           19.82966642340384       25.54686615094484       13.88769543935994
C           14.61589166489004       20.48244216477371       12.24444000268322
C           15.73818675318217       20.67770691434679       11.43748188068957
H           16.71979969742038       20.74392624908316       11.89304020255726
C           15.61576012636143       20.77289771838501       10.06066231326956
H           16.50043920159129       20.91378948091401        9.45086646080446
C           14.36580255440100       20.66939323346161        9.46756955659116
H           14.26839795667767       20.73294430184032        8.39007655437852
C           13.23983826329045       20.47770324538845       10.25856836167508
H           12.26082508912572       20.39664248575573        9.80009901110946
C           13.36096786212817       20.38656020289341       11.63727679007447
H           12.47585364411279       20.23043496912014       12.24423236366061
C           13.50968014730319       19.27560199822565       14.58323154197297
C           12.21403731097532       19.68680001672920       14.90307614381484
H           11.94847170155753       20.73668027804312       14.86567899389316
C           11.25310895588206       18.75817513566789       15.27636317548101
H           10.25131863860888       19.09306805993179       15.52008794887669
C           11.56785302090733       17.40778536256981       15.33633602424898
H           10.81331665395305       16.68510609323375       15.62430274430533
C           12.85538998503517       16.98715966878362       15.03055422506612
H           13.10896555969716       15.93384266019415       15.07102725375049
C           13.81641101715599       17.91418481364566       14.66373187835565
H           14.82259539259968       17.58319155264994       14.42922726183314
C           15.31329312785188       15.35299094755706       12.44236902536333
C           15.17975412004219       16.54799171563616       11.72447904365485
H           16.05513056240644       17.16213919108876       11.54143897999208
C           13.94747204681667       16.95322505643535       11.24179671447463
H           13.86665118710488       17.87235699208831       10.67379922639046
C           12.81684248041271       16.18693692870763       11.49273011006891
H           11.84935777847430       16.50758462710307       11.12433633844815
C           12.93078081165122       15.01158356184884       12.22081695448171
H           12.05199829742084       14.41004917899280       12.42369085273329
C           14.16893117114700       14.59321456006344       12.68911532379632
H           14.23263221962087       13.66604773720484       13.24618293225861
C           17.80382457951772       14.32421471838758       11.49950349852862
C           17.10539457262789       13.70665463411902       10.45966111583879
H           16.02606151962035       13.61870172326982       10.51221761848052
C           17.78507764293674       13.20644516500728        9.35872116208994
H           17.23090308247872       12.73648703657958        8.55439913674230
C           19.16821552536939       13.30164976642729        9.28790894699049
H           19.69808274402359       12.90539596859710        8.42944873848529
C           19.87245565057614       13.91241458607717       10.31663003878177
H           20.95214220488909       13.99012398328550       10.26756922726338
C           19.19311884200680       14.43319525718995       11.40604869542168
H           19.74376792486791       14.93676487330301       12.19365256912490
C           22.65260647236778       16.31192212022170       10.38693529501910
C           21.56455404732337       16.84933925514451        9.69240849044643
H           20.95406469304476       17.61697752269689       10.15794934081035
C           21.25754076876105       16.41431703633550        8.41360931370040
H           20.40976228896320       16.84214408821746        7.89102291786874
C           22.02600855044897       15.42495473930256        7.81465103203026
H           21.78386641535606       15.07733439735196        6.81702850969785
C           23.10289270274958       14.87651454432731        8.49923121557459
H           23.70315721828441       14.10160215629504        8.03604785833879
C           23.41711312001090       15.31432403108256        9.77745010808473
H           24.25919106731541       14.87922227485515       10.30392227735467
C           24.10197896081268       15.70419195840965       12.80344064079797
C           23.50567970641915       14.56175807461659       13.34847898284232
H           22.43002379843395       14.43846742041256       13.27372129418267
C           24.26482404770372       13.59340386146572       13.98358101972526
H           23.78509239899506       12.71182904073215       14.39365889390444
C           25.63989803336840       13.75791734704701       14.09928239611109
H           26.23722830811148       13.00629701761119       14.60192988700251
C           26.24485576029092       14.88897513239928       13.56866595635936
H           27.31723697913876       15.02190398848493       13.65521775218669
C           25.48440349876909       15.85543544420931       12.92448762071416
H           25.97935573601490       16.72677143613566       12.51245343275298
C           20.76025323150922       19.05930252835885       21.40632251332280
C           20.81111658726345       18.76428748094241       22.76989647143125
H           21.12454500097975       17.77494272784406       23.08384392683699
C           20.46821449163683       19.71443545848622       23.71853747489850
H           20.50903521511207       19.46125035741409       24.77245542734472
C           20.06744071001226       20.98545238690032       23.32430300851350
H           19.79072895673418       21.72780407537180       24.06391889040312
C           20.03030766796084       21.29621705860627       21.97167028718334
H           19.72572277766137       22.28684244672799       21.65115328536485
C           20.37933988754403       20.34412786985507       21.02558082547506
H           20.35587837232316       20.59740693326383       19.97088364260887
C           18.50498898182387       18.96254998141912        9.20636470326135
C           18.12980364149450       19.42967791610267        7.94655934401725
H           18.49646780884074       20.39321890520436        7.61137954659309
C           17.29874905065876       18.68128718770573        7.12684495647210
H           17.01566473072068       19.06600032530074        6.15306692407922
C           16.82449055195200       17.44620849636125        7.55081443724189
H           16.16980907486027       16.86187139752835        6.91470009320930
C           17.20246335546052       16.96492044603458        8.79761067666472
H           16.84661715756282       15.99758285845734        9.13638115157666
C           18.03724413021059       17.71402491962895        9.61243228336745
H           18.33460211405728       17.32382699189306       10.58031122202663
C           25.41879966645271       17.62771618729442       16.15619894544650
H           25.73721108477947       17.52142230949379       15.11575628949665
H           26.31823400516340       17.60874226515373       16.77668425468697
C           24.51784934769907       16.42944567703161       16.48141996288210
H           23.56093669560603       16.56577868555580       15.96487933939390
H           24.98337924833409       15.52861308952117       16.06964024490170
C           24.27042697160545       16.23794132314399       17.98423290225958
H           24.30384676933942       17.20908510683259       18.48860783270260
H           25.06172806579867       15.61611509169921       18.41281530557314
C           22.89633326709375       15.62949830286512       18.27390923283187
H           22.75141137335467       15.57977332343051       19.35624928841575
H           22.14565403350166       16.32661990413700       17.89004653185026
C           22.66229095097892       14.24335270272839       17.65265731909616
H           22.88277603366125       13.45709766743164       18.37826906897436
H           23.33455907633531       14.09429094012560       16.80298561259999
C           17.56123133918430       24.16799722244195       17.23211634455734
H           17.38208834949382       24.97064110291651       17.95285357428827
H           18.36634621453537       24.51200654992817       16.57517536524445
C           16.29306686735595       23.94179718157447       16.39789247345585
H           15.55297800058064       23.38980017411057       16.98514394159140
H           15.86066046911155       24.92058446707810       16.16325265065934
C           16.58427348308383       23.20441725413763       15.08873167692409
H           16.93285229168907       22.19066777407842       15.30563915322931
H           17.39501921819731       23.72143516919204       14.56526401494160
C           15.36725211061537       23.14191331023595       14.16126053370932
H           14.88070113159653       24.12281155664096       14.14384173130705
H           15.71199919213686       22.93633289033748       13.14233808095141
C           14.33076076551488       22.08486870296878       14.57116741565141
H           13.37342739765791       22.33720871089436       14.10679791020854
H           14.18295536002122       22.09912269942160       15.65347239643780
C           14.79775968170656       15.59033639992276       18.09817863663696
H           14.37512114684789       15.26201554159691       19.05096160927484
H           13.97008997254266       15.69603150036036       17.39267439992896
C           15.78043330394600       14.53057865746081       17.57574264730922
H           16.77947806043543       14.71238467122975       17.98711016054369
H           15.46335945935399       13.54007279245937       17.91616024118989
C           15.84533762713527       14.53794570255664       16.04696652144034
H           16.00059880377527       15.56260256167321       15.69071855085866
H           14.88825101253445       14.19012117502394       15.64479117397078
C           16.97891391660029       13.65098277997767       15.53295571091566
H           16.94551701840470       12.68227599248181       16.04291400276442
H           17.93766180694248       14.11972319222216       15.78138753325196
C           16.91298544433977       13.40183747279867       14.02356388279942
H           16.02152431539490       12.81684494785304       13.78537486493236
H           17.77452580837477       12.78770855946002       13.74613011159481
C           22.00433801264613       22.40830347042301       11.67782080057652
H           21.37187648102503       21.69629808964896       11.13815852371614
H           22.23393433851944       23.22293034715572       10.98607903365604
C           23.29846529802371       21.71341182189179       12.12226423546609
H           24.01968274312695       22.47355294954491       12.43704560638339
H           23.09781506488601       21.07982839696414       12.99409322803835
C           23.90743447080036       20.86240497498254       10.99987147925495
H           24.98269626033910       20.75580392174706       11.17599809401941
H           23.78300110314726       21.38488393580172       10.04676944854195
C           23.26735320989067       19.46905741922934       10.90159062253049
H           22.20522050873880       19.53278131544957       11.16132276707098
H           23.32283926941976       19.11454946598973        9.86862145327988
C           23.97938735348447       18.45511729345798       11.80812812198953
H           24.14708671096158       18.89816372861643       12.79462281137763
H           24.95915961718889       18.22759522104113       11.37971422691137
