294
 energy: -477.166003827128 gnorm: 0.000036416971 xtb: 6.5.1 (579679a)
Au           8.49922906971975        0.33734769046758       28.65746444820476
Au           8.44263620157123       -0.25746259100869       31.30100157061469
Au           5.96919693519379        0.10407230448388       29.61307543940523
Au           7.59670603442131        2.39605451975316       30.26157449148919
Au          10.42306189308398        1.71258975284371       29.88329059629497
Au          10.59290025369377       -1.22400253130109       29.49932972155849
Au           7.78387543225226       -2.22649802770633       29.15531622624747
Au           6.71687115420087       -0.73544314029595       26.85745333986273
Au           7.02679996667179        2.15317354824265       27.38540824735368
Au           9.91786590636063        1.77568308147712       26.97900381998553
Au           9.62597569868234       -1.14080986090709       26.73694790730034
S            5.07915185000523       -1.55420337974900       25.25407262256196
S            6.63491986223424        4.05588760508554       31.74911208691115
S           12.36787034383634       -2.77933994230585       30.10706598347242
P            8.53788719195741       -0.86578366267655       33.60937402583087
P            3.68360074584740        0.10959954644809       30.30001339828307
P           12.06463875254504        2.89149584807592       31.15894662400590
P            7.27299581453049       -4.54918340806567       29.29473542340874
P            5.60486641824799        3.59638332952664       26.12399153795062
P           11.21675067665432        3.26519719365730       25.63653455467528
P           10.79333665068465       -2.43840469118221       25.11345138640874
C            5.63124691113924       -0.91158363620550       23.76654353877196
C            5.00036078471489       -1.32383711071055       22.57618865672458
H            4.18225256811091       -2.03222159505315       22.64374454999165
C            5.40689356911382       -0.85144332517250       21.34771980256652
H            4.91124313213885       -1.18775943972055       20.44408509769681
C            6.46919363261030        0.06069162347293       21.25440779685313
C            7.08893151750697        0.48876275041160       22.43695582032521
H            7.89774846420741        1.20530207246481       22.37136957132626
C            6.67946058613561        0.01684592354087       23.65835507556944
H            7.17274144253351        0.36245292390326       24.55881691915085
C            6.97428179879686        0.57231875848128       19.98237977607697
O            7.89610533073340        1.35604789206202       19.86431146739554
O            6.33281223475600        0.09272175202135       18.89725815281642
H            6.73926912526579        0.48711053648583       18.10957607876239
C            7.56327390181617        5.47367185169062       31.50712411070593
C            8.53292680193590        5.61782200025637       30.49876226727683
H            8.72112001034470        4.78623656959900       29.82894405951031
C            9.23238085685961        6.79252774251517       30.34676077404232
H            9.97673860377906        6.89168331746696       29.56507044094608
C            9.00286290716555        7.87998670597855       31.20016452618593
C            8.03906054714636        7.74990828397638       32.21042219784890
H            7.85015873771366        8.58216442422107       32.87894300754502
C            7.33659567498597        6.57426762912712       32.35654831248296
H            6.59180115975903        6.47771475707576       33.13867005817018
C            9.78175323818768        9.10369641239568       30.99980519071458
O           10.63084217855889        9.25626519098016       30.14716612406623
O            9.48080674498452       10.09517112144590       31.86415672874282
H           10.04275743279229       10.85719579962550       31.65295600158705
C           13.76415833151582       -2.22496964339255       29.27893268180934
C           13.74654923094340       -1.20186471366644       28.31892267340294
H           12.79984271421390       -0.74280123233044       28.05694349480358
C           14.90432565134007       -0.77062811554152       27.71294178165795
H           14.86498250321649        0.01583014514125       26.96967079755425
C           16.13683993878216       -1.34793806519470       28.04127217721177
C           16.16420510442577       -2.38925785982831       28.98044878978925
H           17.11747161328351       -2.84348845002278       29.22894753765827
C           15.00298241433511       -2.82104489821461       29.58140944546576
H           15.02875269424337       -3.62411715826174       30.30939262918984
C           17.39459543978726       -0.89181055814579       27.44544275392925
O           18.48930010116419       -1.34165882269570       27.69409340380377
O           17.24673546290206        0.12457716559896       26.56068736597341
H           18.13040081757534        0.35609699035651       26.23404125810962
C            7.78627162965276        0.34356182193944       34.73562865620806
C            7.41371413251464        1.56833228021775       34.17966967890692
H            7.61694711999767        1.76719080655135       33.13401572074167
C            6.77924215326358        2.53821427631109       34.93783204192547
H            6.48894670168895        3.46994225730552       34.46250706408164
C            6.51803322982737        2.29922328285660       36.27970312934186
H            6.02086623057969        3.05114948841475       36.88179688099096
C            6.89278029420726        1.08861385192455       36.85145949672290
H            6.68968535755759        0.89954329742771       37.89974758379797
C            7.51670714053008        0.11280960065810       36.08832793075889
H            7.78386412127264       -0.83531081794443       36.54158824454434
C            7.73469046386410       -2.45486524059016       34.00184784844253
C            8.36142916558724       -3.65678320596718       33.65845959282022
H            9.36654677738679       -3.64705450977300       33.25173962067688
C            7.71280007541796       -4.86828455083231       33.83497254859444
H            8.21421450059924       -5.79065423150080       33.56335161158549
C            6.42494603224244       -4.90282063682235       34.35370287063083
H            5.91847609063634       -5.85107439198099       34.49222301944452
C            5.78626939553729       -3.71525924975861       34.68461943949863
H            4.77959090808388       -3.73057583922277       35.08787657953265
C            6.43008799956467       -2.50155345952860       34.49816163078714
H            5.91242329373627       -1.58158093160218       34.74388779376432
C           10.25565048779103       -1.12441354744113       34.15149048903744
C           10.76954760319835       -0.74505165366041       35.39139584546584
H           10.12953284312763       -0.26510904125427       36.12289779248800
C           12.10581846593863       -0.97016870587025       35.69179323724257
H           12.49375107427736       -0.66956861883442       36.65881222485673
C           12.94519465257088       -1.57567122605565       34.76533233426867
H           13.98813407443206       -1.74515353227367       35.00723997940440
C           12.44409286304943       -1.95467524805468       33.52770528984230
H           13.07728024848669       -2.42475784402081       32.78217216551222
C           11.11345995018620       -1.72192828154693       33.22498002951665
H           10.74068764090301       -1.99423837825664       32.24500288485763
C            2.69230470306368       -1.02645782348335       29.28501537727639
C            1.46394399484023       -0.70985229893066       28.70495673457549
H            1.00015483860365        0.24964054933698       28.90373042760486
C            0.83480770082267       -1.61356622391213       27.86010445283343
H           -0.11873707827979       -1.35448240263881       27.41363580047149
C            1.42259759496881       -2.83969094747004       27.58104854557165
H            0.93064200050780       -3.53880800175697       26.91462699340943
C            2.64780087899078       -3.16378636223190       28.14928542275109
H            3.11721128157758       -4.11668338319642       27.93158762320739
C            3.27861132814224       -2.26090857955067       28.98743040161255
H            4.24489141201043       -2.50549038831056       29.41545963885937
C            2.83426218806809        1.71868656754733       30.24466781764172
C            1.58135649389828        1.92543477592526       30.83039546737144
H            1.07405856193053        1.10361192897725       31.32401900338011
C            0.99080777003945        3.17859811584222       30.79658476514908
H            0.01694326754376        3.32636293521884       31.24980194437533
C            1.64743686068751        4.24503026731000       30.19532826926665
H            1.18700523628116        5.22626549979382       30.17905749114501
C            2.89700043064053        4.05352069484708       29.62415324710552
H            3.41974209500289        4.88458767878364       29.16452368517951
C            3.48271063751709        2.79759481069957       29.64447504765023
H            4.45893591979767        2.65067877651063       29.19672927821883
C            3.38234267386471       -0.39488985241575       32.02492064239793
C            4.07706850223458        0.30358728354531       33.01748295854479
H            4.75083953888524        1.10663648773727       32.73647967122732
C            3.90699179554777       -0.01585126800371       34.35447231578141
H            4.43540326438493        0.54721376946386       35.11567034064097
C            3.05426856767923       -1.05207478996865       34.71794919280931
H            2.92146295723071       -1.30404389586300       35.76385650961460
C            2.37360207249909       -1.76255653332249       33.73891238113423
H            1.70646458073678       -2.57022044862566       34.01880923846462
C            2.53282704237279       -1.43558709424502       32.39899416126188
H            1.99043319196783       -1.98927981557707       31.64086027377358
C           13.69078605593813        2.08596946057865       31.25259142362157
C           14.89168559737175        2.75042803098513       30.99825470590329
H           14.88818604984569        3.81582809731699       30.79712050947977
C           16.09159964250616        2.05354323097039       30.99118181923937
H           17.01625994587974        2.58033140488949       30.78354941164966
C           16.10957327820300        0.68900345180950       31.24515588592795
H           17.04687291455161        0.14506066986847       31.23161688430939
C           14.92096031998744        0.02020069452563       31.50504140046640
H           14.92879124667200       -1.04630182666581       31.69706149157789
C           13.71965414927148        0.70899289771498       31.49491077990612
H           12.79114622654451        0.17389775065141       31.66445440237054
C           11.49974109973911        3.05027059115749       32.88057260823511
C           12.05848038414311        2.36555974677843       33.95887995269103
H           12.93564692014434        1.74472293839449       33.81461323245794
C           11.49888856694591        2.47825114082810       35.22390988849688
H           11.94824333858063        1.94838019162502       36.05628190648610
C           10.37264380411232        3.26290985340784       35.42690353465597
H            9.93491881118980        3.34099302469109       36.41568976585508
C            9.80644187760707        3.94597428894990       34.35764561905773
H            8.92674436907143        4.56186567945311       34.50582620231881
C           10.36218586750030        3.83563663623118       33.09537401174644
H            9.91499199531578        4.36574509999444       32.26153131909610
C           12.39897070242675        4.61167984507709       30.67850110790375
C           12.86487392468584        5.57722314073240       31.57563782305199
H           13.05642267155446        5.30543762040776       32.60782562979821
C           13.06677174214458        6.88210726473317       31.15468014421437
H           13.41546413595604        7.62630148052824       31.86170277134110
C           12.81491994619205        7.24141394279928       29.83719286331555
H           12.95096626678078        8.26748042395447       29.51888375436755
C           12.35604002229706        6.28887217356332       28.93757020606510
H           12.15024831111053        6.56285756378443       27.90915534313228
C           12.14423099757876        4.98550983970837       29.35872812171851
H           11.76646904445940        4.24419695014706       28.66316288779219
C            5.68108631276937       -4.97126731476044       30.07048076493741
C            5.29570434703784       -4.22833383487179       31.18922166833913
H            5.95622232781363       -3.45672376319466       31.57064494790826
C            4.08014685287872       -4.46658932631962       31.80947269287928
H            3.79729310052820       -3.88447638785810       32.67881170005904
C            3.22422320524777       -5.43971145695121       31.31124506044642
H            2.26869695180326       -5.61932104382472       31.79065659231548
C            3.59268279952987       -6.17708299631189       30.19408288200830
H            2.92563243355656       -6.93539679083091       29.79972024127078
C            4.81353790434287       -5.94702947810588       29.57673189638789
H            5.09274056930055       -6.52399743907640       28.70240054511216
C            7.13383727268364       -5.21841072634458       27.61347659716564
C            6.27607579735775       -4.53207820039013       26.74779165088026
H            5.68275450875743       -3.70616202190266       27.12394371145622
C            6.18882508483510       -4.87714117999648       25.41103113118010
H            5.53068673801069       -4.30988626922591       24.76126949308374
C            6.96028476622045       -5.92240597576320       24.91706918009276
H            6.90145518152963       -6.19480979198480       23.86949404188956
C            7.81447130693946       -6.61162726620117       25.76736939122005
H            8.42225624256322       -7.42322323527114       25.38324972942605
C            7.91064352980427       -6.25963746726023       27.10637392950688
H            8.59612391243748       -6.79148043203973       27.75687540412103
C            8.49675361508910       -5.57225637365067       30.16440791612825
C            9.77944403183346       -5.03974284060038       30.30190396123077
H           10.00707080086715       -4.07647146182962       29.86183747532568
C           10.76527215895101       -5.72043063882326       30.99700537386790
H           11.75041403079221       -5.27488854529731       31.08817345153908
C           10.47484839973915       -6.94911426527667       31.57400232308174
H           11.23741473081588       -7.48561317310901       32.12697803416533
C            9.20053979677860       -7.48974273296512       31.44746088901463
H            8.97196822156318       -8.44878752639862       31.89900786025643
C            8.21408910493964       -6.80884017469649       30.74877320116162
H            7.22036800883574       -7.23455489845995       30.66223204040158
C            6.01583151630196        3.71227863336999       24.35708441025645
C            7.31682275309572        4.11239372240466       24.03585996818224
H            7.99588089619430        4.39352018776114       24.83309368646934
C            7.74308246361334        4.14461025260117       22.71912793284083
H            8.75516078172519        4.45814818343627       22.48842635865747
C            6.88016555457533        3.75834442659539       21.70083479500807
H            7.22097206662798        3.75260340003097       20.67249791308364
C            5.58915445083470        3.35249549658794       22.00962111939834
H            4.91543943364148        3.04092013045357       21.21942382081166
C            5.15605731385601        3.32795129982906       23.32745642023040
H            4.14830323742101        3.00081052892214       23.55650970855287
C            5.59518468806057        5.31933963631886       26.70783239639849
C            5.82279278362239        5.54777150694767       28.06766254492536
H            5.98888924318300        4.70721852348227       28.73309247545264
C            5.85788493809376        6.83800956207024       28.57256168491428
H            6.03441880655293        6.99781569590538       29.62979611616591
C            5.68136876882652        7.92050961114622       27.72051675530605
H            5.71996848337580        8.93076776328514       28.11138191322325
C            5.46470015059259        7.70615179292726       26.36566404888936
H            5.33219478420004        8.54931012272456       25.69690967535297
C            5.41867715560425        6.41533363974462       25.86060814445261
H            5.25365866850817        6.25617376393112       24.80083938447526
C            3.86450685451096        3.06903781890955       26.15611562339480
C            2.79299821376737        3.93379121809858       26.38412847146474
H            2.97063858212022        4.99719055105378       26.49949746072225
C            1.49966692075491        3.43891416840848       26.46888269081277
H            0.67661223266389        4.11965803209426       26.65632578437322
C            1.25743333130601        2.08011075979933       26.31796527600311
H            0.24496046775361        1.69834682307392       26.38659970839225
C            2.31571328347925        1.21287751903605       26.07934410970817
H            2.14035471548620        0.14994420020730       25.95695698680676
C            3.60837120583044        1.70289028638375       26.00884412689180
H            4.42755189041766        1.01193059602123       25.84066460428667
C           10.46058647022630        4.92288003295113       25.58573488611536
C            9.68733529137035        5.31304092483985       26.68290109301769
H            9.56712804374080        4.63199172658003       27.51812508344336
C            9.06441209154633        6.55001033201965       26.70865320484664
H            8.46622249360655        6.83486568475903       27.56626183490694
C            9.19633443034199        7.41426372192437       25.63028214439469
H            8.70136042498287        8.37848037363391       25.64496515708139
C            9.95518676104697        7.03632657949871       24.53106730893928
H           10.05617412100282        7.70610999505888       23.68443803324815
C           10.58486954333891        5.80029409189959       24.50624655680900
H           11.16830890132328        5.51162973175795       23.63908893095164
C           12.87832684864414        3.58594475055863       26.31271762984597
C           13.57048853191945        4.78363717293175       26.11601701572619
H           13.12389167555229        5.57637599037822       25.52621158292199
C           14.82099741088957        4.97249639418507       26.68521463091089
H           15.34545774456988        5.90854717824599       26.52944954449433
C           15.39651758882355        3.97163499311317       27.45625295811810
H           16.37208005647092        4.12327962911268       27.90379775114706
C           14.71721802255450        2.77849654481062       27.65983964255999
H           15.16048068739122        1.99879626309436       28.26762931464630
C           13.46621365020510        2.58910853349878       27.09481448808829
H           12.92828300692103        1.66330013583286       27.26670231565318
C           11.51283636805996        2.86838689571266       23.88257635307780
C           10.50401560430629        2.18059075570980       23.20204163832758
H            9.59498052116695        1.91541555718437       23.73144129002034
C           10.65554679668145        1.83969691423366       21.86728102792500
H            9.85942760035070        1.32420081506370       21.34318281164450
C           11.82865524752369        2.16385716778033       21.19967904490296
H           11.95152733755694        1.89225748097291       20.15762540346643
C           12.84436370515450        2.83312432474909       21.86842580853218
H           13.76382038588328        3.08413579480256       21.35132462802834
C           12.68946258281081        3.18718896834070       23.20082397217568
H           13.48782066507652        3.71336384718470       23.71185129870551
C           11.03312566305581       -4.18376643382133       25.56849548950092
C           10.92773873825661       -5.24140264335611       24.66316073132255
H           10.69803029248659       -5.04192831447159       23.62257109566950
C           11.11565017738391       -6.54877631415554       25.08698057443939
H           11.03618753185171       -7.36096607298715       24.37294489060482
C           11.40973030731831       -6.81806138853026       26.41733449897284
H           11.55519874737718       -7.84109820954366       26.74519746207430
C           11.51633833663337       -5.77303489625730       27.32555854318692
H           11.74546373506366       -5.97467663572377       28.36582326384287
C           11.32588469073879       -4.46700801704474       26.90549727881511
H           11.41019171208915       -3.65860528867523       27.62482546246772
C            9.97619114530885       -2.47448043507928       23.49117384880411
C            8.71033842327088       -3.06678051545330       23.42305958939299
H            8.29191491022438       -3.53806015475572       24.30630310491638
C            7.98910693284462       -3.05458073058253       22.24158291960552
H            7.01099009101851       -3.52052508940321       22.20192271350154
C            8.50934660237910       -2.42788201524888       21.11615808249294
H            7.94038188495162       -2.40882606304830       20.19393546420522
C            9.75137509117881       -1.81227070868153       21.18056306914500
H           10.15378478533640       -1.30920025758258       20.30859813394587
C           10.48270143356014       -1.83449622429560       22.35915836120581
H           11.45222930572171       -1.35062104590041       22.39744214220734
C           12.47522369539161       -1.83128419358253       24.78397005308215
C           12.64944092073199       -0.45094958849047       24.64715644820589
H           11.78764461505609        0.20439878161366       24.71924932860047
C           13.90794133815240        0.08470507601255       24.42933878910242
H           14.02646773315720        1.15700758150605       24.32186397301930
C           15.01605203733685       -0.75052729466497       24.36322360313312
H           16.00410685549133       -0.33093002413020       24.21535310259835
C           14.85672714431013       -2.12110514065183       24.51374566849100
H           15.72051268433498       -2.77504842300554       24.47591080165339
C           13.59595062826388       -2.66065640138793       24.71987982939322
H           13.48289050442442       -3.73233409827302       24.83707427352493
