273
 energy: -432.258792728173 gnorm: 0.000034577539 xtb: 6.5.1 (579679a)
Au          -2.92250214424633        2.15948628985879        4.77516338827158
Au          -2.00367175903592        4.99907799476869        4.53199208641329
Au           0.97779227829380        4.81480845277377        5.57594918403612
Au           1.21882702160739        1.88631090407149        6.11171122192757
Au          -1.34023520974674        0.60549888986738        6.65123738851103
Au          -2.12300581806321        2.52027858186403        8.71671944434128
Au           0.59102800094597        3.71125072815352        8.40090036303535
Au          -1.23309348205310        5.79167165482888        7.24863236149062
Au          -3.64448461261555        4.14694629309343        6.82628933401844
Au          -0.27312302462727        2.78970448873256        3.75153306136875
Au          -1.07923819247866        3.23256439574496        6.38637659124596
Br          -6.05504370486606        4.67539297482789        6.74181829241296
Br           0.60026500100429        2.12259402771210        1.52707164552372
Fe          -5.12409536462483        4.04240057392441        1.27597897742112
Fe           5.22329487603534        3.24456783603317        4.52111609308066
Fe          -3.12617523054175       -1.72374428051131       10.11525652527136
Fe           0.75388978112912        7.41546257598869       11.06675023534682
P           -4.63455002065438        1.27400483079777        3.40745574037625
P           -2.85792870345199        6.33982477394731        2.76645408419613
P            2.93104850707234        5.96340214795233        4.81349183760081
P            3.14199804611003        0.59474628237079        5.52061019448002
P           -1.59809166316818       -1.72880079741548        6.94774251345984
P           -3.17587035667535        1.76227289218595       10.72038577809666
P            1.88100295008839        4.09391989667425       10.37433586036988
P           -1.46006145596783        7.91324232828646        8.32649304960131
C           -5.80203801566609        0.32047996723272        4.41979437109260
C           -5.42905695683465       -0.96006802327777        4.84055066113176
H           -4.53391648385351       -1.41894128883041        4.43455561866785
C           -6.18947918240292       -1.64439607717119        5.77459487116610
H           -5.88871160847960       -2.63756760231507        6.08960044210637
C           -7.32609453600669       -1.05465035196860        6.31352179078482
H           -7.91656544704805       -1.58713134023050        7.05032573300239
C           -7.69952971778211        0.22013616535466        5.90982596978819
H           -8.58536177894254        0.68428258313015        6.32843902740218
C           -6.94063977362016        0.90763107446893        4.97472590802488
H           -7.23120001332116        1.90908886318582        4.67756363239740
C           -4.09877901121128        0.15983957785062        2.07599854655539
C           -4.90604420922916       -0.84795267872598        1.54311942498654
H           -5.90151552331895       -1.01027682555060        1.94109053582372
C           -4.43716623747703       -1.64467452645319        0.50933197634978
H           -5.07104573962848       -2.42519696319735        0.10387244316437
C           -3.16438584369880       -1.44368603615386       -0.00980486698409
H           -2.80522894586971       -2.06673415769192       -0.82078299867821
C           -2.35263218775407       -0.44672500635677        0.51585527810300
H           -1.35574598360629       -0.28089023794024        0.12282695233447
C           -2.81651080317856        0.34380569068458        1.55484963145028
H           -2.17005395952238        1.11049942326585        1.96781092221226
C           -5.65282722800682        2.50897883267487        2.56717792729921
C           -6.35444297547886        2.39313676315365        1.33105232085897
H           -6.36819094805987        1.51706553369589        0.69599043538310
C           -7.12962002494326        3.56178701593521        1.15426042067768
H           -7.83614209855705        3.73500552686247        0.35300541263190
C           -6.90563919670999        4.41371225585160        2.26326813020872
H           -7.41274101338449        5.34946537119388        2.45842168834786
C           -5.99108245866085        3.77575504516083        3.13055677075531
H           -5.69778010342772        4.12630623666089        4.11318724048217
C           -3.07525761029008        4.09532859677205        1.01781100975560
H           -2.28440992695438        3.54994241507919        1.51614982065829
C           -3.70018328817081        3.72772239219058       -0.19379453679029
H           -3.48151481182318        2.84053539680935       -0.77332302569693
C           -4.57264845018668        4.77672131992485       -0.57404273935416
H           -5.13824528592360        4.82921909151910       -1.49514126890615
C           -4.49108284624565        5.79561693306443        0.40227898007128
H           -4.97789141927116        6.76099969513006        0.35818988470843
C           -3.54879512659153        5.38744794515650        1.39361176821964
C           -4.16355416255818        7.54260483606561        3.16845812496782
C           -4.99276102351889        7.27265322834224        4.25872385605961
H           -4.84865333651522        6.36795948771497        4.84005556756944
C           -6.00646999475600        8.14969987332391        4.60954781633440
H           -6.64146575776899        7.92031715356553        5.45778470543625
C           -6.19927036708627        9.31440257399529        3.87958338092651
H           -6.98854589228395       10.00470242765961        4.15419816771429
C           -5.37568267784642        9.59715582647534        2.79726717540468
H           -5.52216246657436       10.50691764801180        2.22609263236785
C           -4.36188149213205        8.71942284546597        2.44172552100425
H           -3.72093479633646        8.94835717790771        1.59747239602318
C           -1.54943352007670        7.34193494538697        1.99134210307083
C           -1.36698813215205        7.47100394149491        0.61438225530292
H           -2.05098320937398        6.98181575422979       -0.06975514233725
C           -0.31067675580104        8.21925968336268        0.11531294683547
H           -0.17699674497181        8.31066773398897       -0.95661796663598
C            0.57406895960370        8.84664075616655        0.98121628256446
H            1.40030637117704        9.42735689671160        0.58770790418901
C            0.40655488200086        8.71860093936067        2.35414905413095
H            1.10094702322044        9.19760098643479        3.03567102135300
C           -0.64295418583544        7.96605851713482        2.85328348914588
H           -0.76488532391829        7.85431096302438        3.92601272513681
C            2.99925181330322        6.29473981181612        3.02577080919427
C            2.26153632619247        5.45747103305144        2.18715646402493
H            1.66048058695854        4.66210666647898        2.61289691661198
C            2.28608143053883        5.62795676497535        0.81329557064643
H            1.70968040677659        4.95985783673253        0.18315272958347
C            3.04270594491898        6.65089131882603        0.25824230352243
H            3.06320588112319        6.79168099370892       -0.81626049047055
C            3.76902180558697        7.50069406918865        1.08343586264410
H            4.35574854134423        8.30416841299389        0.65262266173622
C            3.74969487181211        7.32750977163965        2.45936695539241
H            4.31581521443519        7.99841103893439        3.09609681155324
C            3.22849754065097        7.58834051034423        5.58552001120367
C            2.10974283060064        8.40029525379438        5.79407021535154
H            1.13120924423957        8.05054216346281        5.48102457334243
C            2.23741251627261        9.63881515437967        6.40137686378004
H            1.36095463856411       10.25910696632153        6.54965284836689
C            3.48324598475647       10.07641215454163        6.83144718929688
H            3.58203848817913       11.04030335289812        7.31709062815095
C            4.59944919954769        9.27380401152014        6.64145461313543
H            5.57404511898358        9.60986521518948        6.97691041617426
C            4.47558984307940        8.03975192145819        6.01966602951196
H            5.35567408361020        7.42467065019441        5.87018861184864
C            4.46556690190582        5.06365491512522        5.15058213593596
C            5.75715818339500        5.23285649664950        4.56656374091733
H            5.99525628135317        5.90304560704144        3.75117759546886
C            6.68416631146660        4.47242998668950        5.31537183486724
H            7.75651010307889        4.46373609321299        5.17098206644603
C            5.98193706840303        3.81578963495834        6.35521035178893
H            6.42229480142349        3.22117115229281        7.14479338666612
C            4.61810717460372        4.16933095582774        6.25113369430435
H            3.83453709590928        3.89554658830192        6.94531539459186
C            5.68841194564953        1.26433974146070        4.24050974782141
H            6.31068889665997        0.61055801895513        4.83710622331357
C            6.11187375229398        2.01344756221532        3.11862150566851
H            7.11525546095706        2.02940732687317        2.71351655416933
C            4.97737050870263        2.64536362268138        2.55486187200538
H            4.96057546434253        3.22733993203646        1.64282496907726
C            3.84857411643138        2.29110299028590        3.32710750391797
H            2.82087598842051        2.54049996561490        3.09523228687203
C            4.27669045042523        1.41877967749885        4.37209300460583
C            4.20431109490697        0.08228321208969        6.90499779296303
C            5.16825747120407       -0.92582965586798        6.82593042426902
H            5.31738702121618       -1.46058945883315        5.89483384044800
C            5.93391976961521       -1.25044413737905        7.93574802710511
H            6.67667553965666       -2.03677837148575        7.86391683354176
C            5.75304778786980       -0.57435639877024        9.13538957446866
H            6.35234159825531       -0.83377089481894       10.00046749598290
C            4.80300234515280        0.43428050312634        9.22417985425630
H            4.65624717670268        0.96874421041199       10.15639517278194
C            4.03553861622555        0.75637734985946        8.11633618094454
H            3.28942080001951        1.54124275958338        8.18540635468687
C            2.68627467995138       -0.91981612323628        4.62088457827042
C            2.60556986314036       -2.16061947857362        5.25665699871621
H            2.93711583663099       -2.26559243786714        6.28327741774865
C            2.09813906835947       -3.26402769658908        4.58747268046447
H            2.04392969294280       -4.22002174190895        5.09643530740226
C            1.65323728376284       -3.14344859832341        3.27848531900053
H            1.25249561493727       -4.00592455546540        2.75856838678507
C            1.71289487782195       -1.90989597895481        2.64192280072415
H            1.35836824651456       -1.80533317474174        1.62272037630665
C            2.21757502340296       -0.80504699155158        3.30776981517465
H            2.23474305198065        0.15594404806185        2.80361589367429
C           -2.04748807553034       -2.63411486978668        5.43507950534805
C           -1.47289714575780       -2.18182956503575        4.24392016732267
H           -0.76997738200436       -1.35570534326492        4.26982558143095
C           -1.79795461900194       -2.77314870980203        3.03493059747076
H           -1.34429088687169       -2.41143109100680        2.11952931155850
C           -2.71710384998497       -3.81317267016919        2.99566208318722
H           -2.98387337374263       -4.26527499613765        2.04738730199245
C           -3.30024911467670       -4.26543981328164        4.17146991653041
H           -4.02119163400106       -5.07455391504544        4.14434305269777
C           -2.96798529624754       -3.68258833540615        5.38579254877908
H           -3.43283033282182       -4.03833743177419        6.29843063463856
C           -0.13127532798142       -2.59448041040801        7.59511727374078
C            0.07514353851933       -3.96807708998867        7.45720914111039
H           -0.65415942663046       -4.57323307115108        6.93024403833168
C            1.21399575506902       -4.56072125570500        7.98236053081640
H            1.36434752480400       -5.62837486550342        7.87038681152259
C            2.16066069469933       -3.79211163209025        8.64744437321276
H            3.05018558981266       -4.25846915774887        9.05475919638924
C            1.97100067163042       -2.42254978584510        8.78002054762244
H            2.71282362138855       -1.81434697048387        9.28568313499943
C            0.83417958099779       -1.82963217087022        8.25284858309534
H            0.69471810763109       -0.75721775148193        8.33952043503942
C           -2.91504679663295       -2.15759674852224        8.11125609790156
C           -3.12778996997758       -3.35235371058424        8.86133149352782
H           -2.48185998159738       -4.22038174169370        8.86065901050889
C           -4.38192628917719       -3.25028767511233        9.50631359169038
H           -4.86107481884511       -4.03153021135265       10.08167268634556
C           -4.95104419209166       -1.99656652757494        9.17456716557241
H           -5.93937132938628       -1.65326688013099        9.45042895335982
C           -4.05004765671722       -1.31972753737194        8.32293527966010
H           -4.22794344986725       -0.37428722641181        7.82749502615691
C           -1.54082989487068       -0.56679039415022       10.71876296352050
H           -0.77460222871611       -0.08412622414789       10.12723641992359
C           -1.45528871250610       -1.84016141518305       11.32522337403340
H           -0.60649310202866       -2.50962826454901       11.27668785075544
C           -2.62609680575131       -2.03366868794420       12.09832434702756
H           -2.82633520388135       -2.87854902368124       12.74413132076583
C           -3.43714269776929       -0.88315347228197       11.97009588345612
H           -4.35933851758023       -0.69500655194721       12.50341575567416
C           -2.76474911902972        0.04367220273995       11.12033968615172
C           -2.75836696155572        2.63770728148291       12.25949186338516
C           -1.65065332203116        2.25771798810511       13.02134316575931
H           -1.10073147790745        1.35913094198671       12.76255505823066
C           -1.25242825545203        3.01787430730124       14.10960325298427
H           -0.39483376102263        2.70733935002738       14.69568040471117
C           -1.94444928446843        4.17307334162254       14.44724565166822
H           -1.62954740757939        4.76665907141171       15.29761307133853
C           -3.03974109845084        4.56704461436530       13.68935280608729
H           -3.58514391460031        5.46785082244373       13.94738658794252
C           -3.43897465499089        3.81006628437522       12.59944030747257
H           -4.29220424838471        4.12494498672457       12.00882899998639
C           -4.99020452201631        1.79486696277459       10.63121967519482
C           -5.82470539618871        1.68041234371097       11.74675066223133
H           -5.39438128172091        1.57637681043649       12.73666421474359
C           -7.20224738483132        1.71071798831713       11.59372316759967
H           -7.84026175710013        1.62011539438929       12.46558002917630
C           -7.76606318466627        1.86634452282000       10.33336642775771
H           -8.84372171200656        1.90030694100821       10.22259045473898
C           -6.94671569389390        1.98841838234800        9.22020147913339
H           -7.37101057559618        2.13423547674909        8.23313358331964
C           -5.57080418332762        1.94605224182870        9.37067231137254
H           -4.93487292434288        2.05063333701514        8.49935857469311
C            1.87779362056447        2.67418304462683       11.51833666920716
C            1.68160168970761        1.40518420719161       10.96968003716866
H            1.53127419403961        1.30621147487880        9.89994548599309
C            1.67211475274121        0.27774691871707       11.77610159374330
H            1.52527416815751       -0.70148050692227       11.33465927441732
C            1.84788492729101        0.40472432206280       13.14729166358763
H            1.83574675873321       -0.47499413165549       13.78016331415817
C            2.03679824370489        1.66203745244356       13.70612617675816
H            2.17663800280391        1.76479518362610       14.77615567573579
C            2.05153996364995        2.79004812050668       12.89925218631438
H            2.19166833296733        3.76812082341625       13.34573591633212
C            3.64062718561530        4.54328051887855       10.22030979472364
C            4.66374791441411        3.96180738435451       10.97045214185508
H            4.42762019032977        3.22769004585560       11.73236166226787
C            5.98618023434645        4.31782847347138       10.74897563476691
H            6.77084337313951        3.85641442907332       11.33774536482200
C            6.30604816726814        5.25900679653388        9.78034565811483
H            7.34005893659618        5.53563802307020        9.61062465072976
C            5.29676339199196        5.83938022246851        9.02312017300379
H            5.53766318424733        6.56804471685331        8.25742150528437
C            3.97749521070287        5.47416817893282        9.23317792876841
H            3.19555636960111        5.90848262058713        8.61966870347697
C            1.16908867448736        5.41027676247706       11.39250511012630
C           -0.23547092917136        5.65214243038174       11.45611018015973
H           -0.98563153724514        5.12759023358676       10.87861359495007
C           -0.48128333572228        6.57820378911704       12.49385520863216
H           -1.45607755293453        6.89511974510991       12.83998518913178
C            0.76269055732676        6.92759606298755       13.07343682848396
H            0.90291914081083        7.55990700036795       13.94033446869947
C            1.78124137562701        6.21951280795323       12.39505236352460
H            2.83303800654927        6.21620406945546       12.64911659819856
C           -0.08617311158559        8.35170635802138        9.42241721036541
C           -0.04449265321991        9.23779442492983       10.53938956765160
H           -0.89259501383109        9.76379867511247       10.95749688803936
C            1.30678055481638        9.40074977391227       10.92369903303683
H            1.66886067649248       10.07710199138012       11.68692188023266
C            2.11067794268117        8.61380356315633       10.06349809805041
H            3.19232621365793        8.58659051984692       10.05063849910812
C            1.25673515225088        7.96253524361950        9.14596993491327
H            1.56268673332033        7.36132614438524        8.30029182728915
C           -2.93698422800777        8.05606026994269        9.38089254892561
C           -3.53069701058531        6.87761828946210        9.83753307442344
H           -3.09870890681196        5.92134906166267        9.56262989527668
C           -4.67067791616888        6.91937684920566       10.62350303363376
H           -5.12960947171993        5.99593195826129       10.95808746411901
C           -5.23056496253448        8.14174554572545       10.96850165598436
H           -6.12452384617601        8.17620224893444       11.58035606601131
C           -4.64939461536127        9.32023039922410       10.51938197112767
H           -5.08791013457651       10.27626962714608       10.78188689060215
C           -3.51303874784518        9.28050828302037        9.72621971710815
H           -3.07552862435395       10.20486048398630        9.36546477092368
C           -1.57270557805858        9.35586656137363        7.21815609177171
C           -1.00838807040081       10.60321933300265        7.49317032979922
H           -0.48873803286790       10.76785685363878        8.43036259317742
C           -1.10915107762924       11.63715741522398        6.57285377185001
H           -0.66768198624475       12.60107526466785        6.79908423616416
C           -1.76994530226763       11.43903664865640        5.36830668313112
H           -1.84210541333776       12.24642176822501        4.64887659046639
C           -2.33717409512141       10.20356088406273        5.08631998730510
H           -2.85441421747527       10.04394539024773        4.14704667668595
C           -2.23716532753527        9.16953684026753        6.00298831043272
H           -2.67922161473069        8.20412245252498        5.77856755953229
