351
 energy: -515.532461613162 gnorm: 0.000725720279 xtb: 6.5.1 (579679a)
Au           2.82931994284171       12.54759976491533       24.85443529828392
Au           0.64677484149646       12.82578529443115       26.51943117994506
Au           0.60477432015333       13.29299515098339       23.23987723231546
Au           1.91216821680252       15.13134486446965       25.21806541499935
Au           2.85863406385736       11.27617973545153       22.42221644112564
Au           3.40100852980477       13.19955168015418       27.37277379116869
Au           0.85479007632716       10.64863237793477       24.58849640876549
Au           3.26298961004009       14.22180284978724       22.60735610391075
Au           4.77880358679350       14.53141100134372       25.21503216650707
Au           3.65497325194667        9.99808063149863       25.03638315686501
Au           5.34269604386573       12.10752963943062       23.83204993765327
N           -1.59812295941416        9.25794335941220       23.07851146538656
N            5.56481237193268        7.67732275875570       26.01684956621993
N           -2.37049956984367       13.50342835921641       27.31885730526195
N           -1.01447570046213       14.17855040861406       28.84361746469976
N            1.85587034203322       17.89451237712918       26.98139536833623
N            1.92465783082740        9.71526062587715       19.82062330134790
N            0.39041554315964       17.85802997012905       25.40188208177335
C           -1.17156613343148        9.71507187443422       21.81500432116190
C           -2.78540762461564        8.57622374124598       23.32263035520551
N            3.77332044873519       16.87111639257341       20.96949388313856
C            2.18404322433880        6.85735970107966       25.28369880432214
H            1.69032655565056        7.67079924872834       25.82511223580547
H            1.76822943857706        5.90884921553738       25.62853310736197
N            8.09487247084534       12.33786615164341       22.23206399813880
C            8.00802804350153       10.26186990363523       25.07163764590067
N            4.48293121440063       12.72818469532879       30.23980395057276
C           -2.24853307142610       14.70776591095266       29.17996304904491
C            4.34088701051004        8.00552057169585       25.55431510027843
C           -1.08402242120117       13.44462299750631       27.72401565461286
C           -0.85049001355152        9.33419871269626       24.20589986102398
C            4.13134069781223       13.65322064110748       29.34214713959750
N            3.60536369150978       15.22810989590937       19.58848748352710
C           -0.20325141941183       14.12191835273087       20.08780718875556
H           -0.40060933525588       13.94051471553627       19.02921569173049
H            0.59051439238106       13.44410093186523       20.41439687037042
N            8.32091364579349       11.03728957350175       23.93322115824190
C            7.41994966815486       11.76036915635513       23.23351488639521
C           -2.90085785861700       12.87890453140142       26.16692356261748
C           -2.42294560277963       13.24616055933504       24.91673082675355
H           -1.63779865095378       13.98213987268324       24.82935266352732
C           -3.01102932902231       12.70022899496081       23.78130104688008
C           -4.01667346694690       11.74387592413295       23.90043007254499
H           -4.44063477247936       11.28603339773083       23.01613781154548
C           -4.47130443090375       11.37613110813794       25.15798640240661
H           -5.25750411524077       10.63625124522294       25.24894508549993
C           -3.93707079634089       11.95926598347804       26.29742522181995
H           -4.31071897269206       11.70124730695490       27.28003268151108
C            6.01477117261901       16.25993000111098       25.68923291005590
N            6.94174905573415       16.27903568661372       26.65315588733906
C            7.43067064923437       17.55856532685962       26.85265647691071
C            8.38892976510698       18.08208987227606       27.71384131711762
H            8.93023779160725       17.45848617105678       28.41324831088437
C            8.62862085409973       19.44368892177023       27.63220457999378
H            9.37018407365662       19.89114622376988       28.28309709566242
C            7.94552804251800       20.25635005876504       26.72158913701278
H            8.17762294111445       21.31389554430939       26.68306449973574
C            6.98435699783313       19.74232823833604       25.86695294111213
H            6.46840222287722       20.37440911878740       25.15604053344071
C            6.72590324134256       18.37985405533184       25.95889205680833
N            5.86265358404892       17.53521960884294       25.27406228103851
C           -3.13509635338953       14.26324884477988       28.19117845321643
N            3.59647644697860        6.89465471011164       25.62682637607200
N           -1.55352644146686        8.72745520086137       25.16693892669209
C            0.38690600379801       21.23852172993939       27.71746562283433
H            0.41706710485639       22.09535488528470       28.37989263670049
N            4.24368696477386       14.85207240912583       29.95571750019985
C            7.38437543875386        8.69247116228584       27.28168117712321
H            7.13186565218814        8.08906930294615       28.14430762891494
C            2.95393523235032       17.58279494951861       27.81758150407415
C            0.23012544388857       19.08117246302362       26.02878404872981
C           -4.63085333230632       14.19176506859442       19.07860286466294
H           -5.10417133646393       14.47034291598467       18.14472849595998
N            4.07510414855541        9.76098919985303       19.89245679926880
C            0.15237293059493        9.51470265813024       21.43936747298062
H            0.83897499259759        9.01049915288672       22.10169677758357
C            9.43364660543688       11.98424569045344       22.25782591422606
C           -3.84397096663736        8.18624386119444       22.50964941329171
H           -3.86373996290628        8.40118063414385       21.44947648070001
C           -4.88370323548344       13.45826053678586       21.38178232026347
H           -5.51333986539148       13.19540270746124       22.22159579837897
C           -1.85013480129353       17.05507761192129       24.86254400413430
H           -2.26361744316773       17.92533074689320       25.38019113355262
H           -1.73585665612795       16.25665221543652       25.60296162070689
C            3.86580825743556       17.58901945660995       22.17838299814412
C           -4.89594180602499       15.44829019277951       29.22608960341973
H           -5.93346892140948       15.75726723131325       29.27033882988802
C           -1.62069562173312       10.73761002895264       19.68579954111455
H           -2.31415366756970       11.22092921331916       19.00778650491928
C           -4.47565449465447       14.62938758129045       28.19150162905700
H           -5.15759196019993       14.29273045826506       27.42117180953479
C            3.91981617309634       18.56122931839728       28.04638725589758
H            3.84592952813254       19.52312915031764       27.55678581660570
C            6.94211088916688        9.37418517864873       25.00768539116537
H            6.37446546859275        9.26530525192853       24.09785921259431
C            4.11849238764622       16.09558370376481       29.29945028139188
C           -0.46044336664409       17.40281511603458       24.31875279032077
H            0.01101307059207       16.52314635674936       23.87333253393360
H           -0.51243316256637       18.19572324220263       23.56734312799971
C            2.50592888249964        5.91913850590982       22.90595161456600
H            3.53853348076927        5.70653186967102       23.21443133424151
C            2.97260889485837       10.15625865178239       20.54322951201976
C           -1.33829296050709       13.38544391255903       22.12828952881800
N           -1.38965833799767       13.78316660091208       20.85198105192457
C           -2.69340005429006       13.84970101490698       20.39304895395313
C           -3.49621852608654       13.44939308288746       21.47117458983631
N           -2.61535184871024       13.15886815694180       22.50810044937306
C            1.66886046863592        8.37782758408008       17.67421857848538
H            0.58732336447168        8.34750554901076       17.64414373484129
C           -5.43249961333401       13.83490683242125       20.16723307143727
H           -6.51005918120226       13.85498588008341       20.05681813527447
C           -2.67380055581645       15.53813463724161       30.21148721293974
H           -1.99443075501954       15.89763925568356       30.97345421913710
C            7.51714209245902       13.28144983705846       21.29380342870527
H            6.42948733529380       13.19232400023731       21.36722656378034
H            7.83100181362536       13.00142609893950       20.28424178657492
C            3.77557260108578       15.52033677796306       20.88655680191444
C           -2.75390762379041        8.23803734416235       24.68315630554986
C           -0.16852069166075       18.02354408095563       20.10491862464326
H           -0.25972952467664       18.09247198867252       21.18947739504940
H           -0.79744651796088       18.79064349498157       19.65428315317103
H            0.86942939782683       18.22312563998485       19.83347194378182
C           -0.30457776010503       10.53601313043554       19.29554185190038
H            0.03955047011958       10.85370128650639       18.31944107698810
C            3.65373421420102       18.76479746516740       19.26744917652186
H            3.77973059814455       19.59737645852048       19.94702609336070
C            3.51446782644740       13.88719553263964       19.04200486416231
H            2.63936655817843       13.84726853880809       18.38599922522865
H            3.35755815896743       13.19708327509087       19.87581637820591
C            7.37511573116172       15.07831339539027       27.34907185781453
H            7.88478707477019       15.37192411431592       28.26903992295384
H            6.47908058211793       14.50806095827742       27.61277198492362
C            8.76440981602868       10.37363901141068       26.23431754392093
C           -0.59059148882505       16.63530134147164       19.61401629226902
H           -1.65363860365914       16.48759481996784       19.84674561049536
C            4.79463596993799       17.19686038237713       23.13520835124604
H            5.43335438737401       16.34457952741770       22.96010862255001
C            3.15970581918093       19.40208288925470       23.58296369300270
H            2.51157709540361       20.25076317387936       23.76660655724912
C           -3.24944912542197       14.21090608705167       19.17047054554250
H           -2.63683660465060       14.49943692105235       18.32688412523773
C            0.57595665590187        9.92770065883004       20.18373837865525
C            1.17614981862138       19.10690641398914       27.06030658244326
C            1.25260510074329       20.18098080135530       27.94077901534519
H            1.94606828987115       20.19318942071078       28.77148302064054
C            3.03159031955291       18.68006599614379       22.40645834237282
H            2.28171576019714       18.95444813813360       21.67641912595838
C            2.35202720063324        9.02698106020605       18.69514880455087
C            8.44298724844007        9.58876417784408       27.33310467680394
H            9.02473871674638        9.67851732921517       28.24278272914889
C            4.79700794095212       13.30334557925288       31.45863392990499
C            4.65258669655783       14.68657684408179       31.27556970548571
C            4.83837156797074       15.57629102339992       32.32784015794287
H            4.69313814527268       16.64197620565900       32.20809871759825
C            5.20361503798207       15.03438928515527       33.54981208206915
H            5.35808181309761       15.69397385408660       34.39532693125432
C            5.37035270963077       13.65676419449883       33.72402024903752
H            5.65555383767944       13.28069945025594       34.69922048081844
C            5.16567659479816       12.76379680480969       32.68542309976662
H            5.27793093339336       11.69682872851335       32.82793732570536
C            4.91664197819767       17.93467175576424       24.30646728920944
C            1.36167223499100       17.13651760748501       25.97257211698204
C           -4.87596443753559        7.48683815095750       23.11389134164630
H           -5.72026205104870        7.16859364328694       22.51407868242745
C            4.10747086000782       19.04470182902422       24.52979507313566
H            4.20326861480746       19.61414194186901       25.44411089446380
C            0.16892035854010       14.31405050130183       29.67004758800377
H            0.30554500969346       15.37395822165779       29.90400151819254
H            1.02208255742701       13.96683065132448       29.08179852853475
C            3.05017109502277       16.34314806067157       28.44124522831002
H            2.28916164536815       15.59439398908010       28.28262649905933
C            6.64000244019923        8.58663907817588       26.11106027154473
C           -0.52803672518988       21.22966327425692       26.65960829087238
H           -1.17882275050710       22.08438062574703       26.51917944043952
C           -2.05830606363536       10.33723766137251       20.94012295895782
H           -3.08114270651082       10.52349196247765       21.23924191116258
C            0.23059326883955       15.56707831684295       20.35146544356138
H            1.27855361631960       15.66029391180378       20.06071060321996
H            0.17384644355732       15.74379414145201       21.43017163757884
C            3.64582199623475       17.44737133555346       19.71274107420253
C            4.98418887362834       18.29727839452396       28.89319375422703
H            5.73930860768674       19.05572625015499       29.06115148901256
C           -4.01229033667350       15.89341825260328       30.21558516298899
H           -4.38704736072171       16.53702528723118       31.00255987795824
C            9.58351736223092       11.13832298521895       23.36575828870274
C           10.50658964116020       12.29194986009868       21.42866576537772
H           10.39562311509306       12.93718400123653       20.56684258732864
C            5.04648246702234        3.68937144117735       26.82712998419282
H            4.85005365954755        2.64117411078259       27.01846683949703
C            6.32851636185830        4.19447948586819       27.06864125404378
H            7.09650456080631        3.52535648535308       27.43782183434320
C            6.63973583772268        5.52481741260557       26.84348226533777
H            7.63570122176913        5.90953249631048       27.02070049261269
C            5.61526400564309        6.33642467953498       26.37103279049927
C            4.33437928687242        5.82778265004729       26.11164665555499
C            4.02733746346521        4.49142067495493       26.34245837743882
H            3.04153492453862        4.08879281703624       26.14862906830206
C            3.75358539618108        9.04906861258343       18.74786323645426
C            1.96265664261832        7.05483409379510       23.78405570157774
H            2.44905160778412        7.99149047890011       23.49564964869988
H            0.88734824356355        7.17371948240623       23.61719617751210
C            4.49054074425794       11.30599831691718       29.95332432124504
H            5.34043463985396       10.84626723073693       30.46578701496922
H            4.62477837012318       11.19814119085943       28.87407116670771
C            4.52148084993254        8.43576752285147       17.76346806913753
H            5.60302099800091        8.44859072778448       17.79078043726751
C            5.41862439313466       10.08240391393949       20.34157135245339
H            5.39748759652326       11.10998179797371       20.71749759012374
H            6.09479488685038       10.03784134336260       19.48568620463380
C            3.50623723565760       18.96692027603745       17.90495744107436
H            3.50621056252016       19.97853271278215       17.51712107107842
C            2.51787337357411        6.37398227936554       21.44316755272093
H            1.50372553889277        6.57960089901082       21.09673170272763
H            2.94995247097098        5.59926771083396       20.81015908032757
H            3.11019262833110        7.28304384345816       21.33249872769980
C            3.53458228358529       16.37586378723629       18.81612318713492
C            5.09219655103674       17.06672228308519       29.52000966077650
H            5.93483496542454       16.85315697792692       30.16483864777780
C           -3.78862779370404        7.53116895324251       25.28499466779607
H           -3.76317803373821        7.26488907098854       26.33364909901048
C            3.17396881699486       10.66967642686043       30.40389113475774
H            2.34091001052221       11.21461191369765       29.94843957942930
H            3.09001233346937       10.77752818552722       31.48880217659196
C            3.35820472692710       17.89856271864953       17.01495919869431
H            3.23824768745081       18.10605429001138       15.95840918758096
C           11.72814637004977       11.72563135946459       21.75237675591954
H           12.59211345867321       11.93985105797865       21.13468361224721
C            2.81720980559977        9.00289761161460       28.53465752567499
H            1.87668294709161        9.48139817440331       28.25488665838327
H            2.75369469954344        7.94304103027607       28.28751740046766
H            3.61556637199854        9.44279407944304       27.93613893436441
C           -2.82517679314359       16.59730858296217       23.76589150400116
H           -2.36608263962987       15.75919774629262       23.22251432752853
C            1.22766228172310       13.64001224165633       31.88733329225622
H            2.14140841362837       13.42888678329265       31.31616868338033
C           10.80788776076499       10.55773053398899       23.67638595841459
H           10.92298991801939        9.88526346450711       24.51649804828844
C            3.09144246359661        9.18139599809977       30.03018337838659
H            4.05350288764657        8.70607288267705       30.26651401362203
C           -0.62978897007615       20.14994848888464       25.79916608553616
H           -1.34796723166764       20.14197479421528       24.98960932706438
C           -0.39270411709782       16.55354045615402       18.09770234898775
H           -0.95970063776326       17.34450440729456       17.60754320772914
H           -0.73405589272843       15.59698288463313       17.70250905195765
H            0.66167321256442       16.67439251727295       17.84335380056664
C            0.02740608223027       13.47560035141143       30.94355932102050
H           -0.05886522498157       12.42434003320142       30.65280702864359
H           -0.89395074862213       13.75288778900162       31.46307891385897
C           -4.85327932773419        7.17117975215775       24.47589250301869
H           -5.68292152646829        6.62056107654183       24.90279537067405
C            3.37298500443094       16.58338410426412       17.45037332664350
H            3.27062314251930       15.76059226226471       16.75498919482888
C            2.43946033957002        7.76761187896736       16.69883028794198
H            1.95004121567966        7.25029886702337       15.88235115337576
C           11.87512567615021       10.87366177587163       22.85221213951039
H           12.84882793825013       10.44602645470563       23.05928596589939
C            4.79400880655197       13.53371658364248       18.27877778194766
H            5.59638803975645       13.38960545047103       19.00841686814296
H            5.07920450826871       14.37214056175188       17.63741035293724
C            3.71516557250731       12.48208247442853       16.23255092704198
H            2.70546324648046       12.73340255625938       16.55893752630197
H            3.66106494439839       11.57130720977408       15.63615468437883
H            4.08828520390288       13.28822491854134       15.60009620525925
C            1.99989006736307        8.49936674043131       30.85824243507793
H            1.03960710264590        8.99204716790988       30.70268587923567
H            2.24439209256924        8.54613410112893       31.91930310814996
H            1.90543552224960        7.45256572892833       30.56995133180425
C            7.73047282939590       17.16216128216104       21.19606047747751
H            7.40774397297268       17.29251518485659       22.22921327568068
H            7.23851222071021       17.91673795074809       20.58224618531382
H            8.80782033236038       17.32401241424673       21.14985011234451
C            7.96037419384239       14.70603773480827       21.64164896806320
H            7.63123936169069       14.92430295892625       22.66295354728424
H            9.05270302186575       14.75787952625416       21.62637497226912
C           -4.12846946574424       16.11344224271078       24.41004886506692
H           -3.92922354658480       15.34175018509724       25.15344294268259
H           -4.78960149821525       15.69762720305422       23.64932629698117
H           -4.64026978061217       16.94143739732537       24.90139558804596
C            7.37878387825163       15.76049154249870       20.68707586000694
H            6.28432153107132       15.65097116995216       20.68059623594765
C            4.64290142233949       12.26204211032719       17.43033130255924
H            4.21073899303332       11.47552676958364       18.06235103863850
C            3.83750851147440        7.79935620380066       16.74147096553379
H            4.39829890588548        7.30794266271557       15.95539363344989
C            1.67438226162986        4.64365672891099       23.05540549758539
H            0.63659990159316        4.82777142113530       22.77415277191409
H            1.69637768129787        4.28269442032859       24.08367188615045
H            2.07505539832063        3.86127368403363       22.41140848112588
C           -1.44236235335026        9.52503522236655       28.90364968562948
H           -0.36693332223626        9.74977288063029       28.95303173846369
C            6.02123166223218       11.79904579003493       16.94962764026042
H            6.47491980845429       12.55209452255901       16.30476324605914
H            5.92876272251072       10.86993507647593       16.38734298726319
H            6.68411733218156       11.62566896565329       17.79870237855529
C           -2.19680783863533       10.59641582399081       29.69559229446550
H           -3.27097718095472       10.40949642809427       29.66661211354647
H           -2.00507345881472       11.58322331258714       29.27507235025405
H           -1.87277113224729       10.59264665135765       30.73617704985696
C            7.89836719875920       15.59101860187017       19.25703286149378
H            8.98656702803262       15.65824117235376       19.23430102329215
H            7.48945745978167       16.37642863739519       18.62126079838100
H            7.60230188550339       14.62901977682150       18.83922528366822
C            1.12759757210668       12.62619580879883       33.03051713683784
H            0.24368868720709       12.81964850521032       33.63868984924574
H            2.01004849069598       12.69321199565472       33.66710969994937
H            1.06144700276779       11.61176552153703       32.63584561644447
C            1.32148155275716       15.06119805594654       32.44969873062062
H            1.53415197182916       15.78241659166310       31.65971471205492
H            2.12716369565847       15.11651599561173       33.18195952472748
H            0.38932272507216       15.34329664880097       32.94013810128695
C           -1.68759313681694        8.14534664719829       29.51996362195067
H           -1.04515127573394        7.39237733306912       29.06344884576892
H           -2.72785054939563        7.84554158719035       29.38851865985808
H           -1.46976699943499        8.17328591764289       30.58748844147771
C           -3.13726879888965       17.71441127320399       22.76747032443369
H           -2.24103376615259       18.02841772783578       22.23432445520537
H           -3.55805575475469       18.58051042091397       23.27932511565129
H           -3.86097831263871       17.36020715018974       22.03319841101140
C            6.20923175292476        7.72057879956656       21.02375420171095
H            5.38112475643229        7.34083890143778       20.41039279818130
C           -1.87843176808646        9.58297705378201       27.43258455423027
H           -2.95046672025823        9.37824453883350       27.35691307857118
H           -1.70441697980146       10.59231642338608       27.04767327429541
C           -1.11437900019360        8.60064300491391       26.54405180925442
H           -0.04434143350209        8.82322912348414       26.56783956857498
H           -1.27268501846753        7.56643910633348       26.86148024139927
C           10.28477766479842       14.20681043430839       24.94017090714814
H           11.23341536113425       14.68841924047313       24.70403336798521
H            9.63937754192314       14.26530694217158       24.06324232084584
H           10.47528712547289       13.15532589749360       25.16049487891140
C            6.35172109529478        6.82721868372895       22.25991742350516
H            7.19383812153047        7.15292172495065       22.87260783526749
H            6.52137436932026        5.79351006961172       21.95987439639566
H            5.44762859081026        6.86806217798355       22.86830275047800
C            5.87565103673882        9.15256519001044       21.46610522950063
H            6.75779403597241        9.60589941552997       21.92803877338088
H            5.08109344457575        9.12410076394129       22.21787243617873
C            9.62517777413635       14.89718827038825       26.13612502293726
H            9.43861863531334       15.94592797142265       25.86796959311281
C           10.56103592024511       14.85420429671914       27.34657524845572
H           10.11616220076327       15.36056577370934       28.20337625321379
H           11.50126034171898       15.35047881092913       27.10774391688138
H           10.77499282299619       13.82205451971891       27.62778791955726
C            7.49897687795870        7.67735747398399       20.20068834411231
H            8.33773288238831        8.05745241494532       20.78591107781241
H            7.40845649440968        8.27920358926083       19.29631923353102
H            7.71781880613913        6.65131789499379       19.90639234513528
C            8.27625097607570       14.22935505036325       26.44878824785503
H            7.73724162491926       14.03964182950410       25.51524296669554
H            8.43979088275692       13.26363221925707       26.93745575631350
H            9.58989115797648       11.07250845134124       26.28136361559138
