273
 energy: -432.425984314356 gnorm: 0.000048643975 xtb: 6.5.1 (579679a)
C           -0.13997026952687        6.17654715919729        3.10053730260988
H           -1.13235488394796        6.27757525251881        3.52556098490391
Au           7.19817939788299        7.66119952943736        3.93940372266104
Au           8.96950905486321        9.80974041301392        5.15760604342852
Au           4.53986674639693        8.99854556328654        3.53515809165826
Au           6.28777235130587        9.71257838597225        5.48949668431358
Au           7.19017622096109       10.44953844447303        2.91662849241833
Au           7.74846295303639        7.80401537114750        6.92813061638130
Au           3.90438440066595       10.18454591982100        6.55648051318587
Au           4.98314179432393       11.81901558611523        4.34218978960126
Au           4.99714829441942        7.38092152938240        5.92320845841831
Au           6.43460998635509       10.14556238663852        8.11353000058453
Au           7.35378529647030       12.05639421404624        6.06195594799915
I            7.67127397149800       11.32913004614178        0.48398869885277
I            9.57077925928691        6.25571184965590        7.98743901323935
Fe          11.61507464074487        7.03143620467076        2.70995682216150
Fe           1.94235536204080       11.96124660880534        1.06115171537604
Fe           8.26490732287532       13.76084666739825       10.19498639746215
Fe           1.13165957736475        7.00792842094230        8.30885550404115
P            8.20420047971489        5.96881606909314        2.60279040731054
P            2.90262797144066        8.63521507499312        1.83884099737416
P            3.84387497983771        5.43343105932819        6.68388755223973
P            8.32887932439910       14.11549845265966        6.69199081666688
P            4.12477832031346       13.72542474675723        3.16123813209603
P           11.32234819941606        9.82669248305847        4.85565633730637
P            6.73559228851392       10.60067889196416       10.43462285822196
P            1.86714621160004       10.45217803868359        7.77641918064721
C            5.38968682303547       14.96981279331377        2.75111262484949
C            1.44627992232847       10.91533702180505        2.75330209697845
H            1.92624848971390       10.91080582605563        3.72283982694848
C           10.09568032522765        7.83852920152197        1.56410175438201
H            9.44919349807717        8.68823172438969        1.74051572649337
C           10.83596250953874        5.67363941314970        1.37004084198657
H           10.85965933943991        4.59190617318511        1.38404912010500
C            9.68296743923340       14.63821293728776        5.59745722007069
C            0.80875976341448       10.29005138348022        0.63955488734708
H            0.70984038812006        9.72497097438443       -0.27777236081078
C            3.39665805651915       13.34041426333446        1.54539754906842
C            8.25613479758342        9.87885731745252       11.12013056386137
C           12.21780626759103       10.26436196688600        6.37405292409249
C            6.31533130982083       14.68767344367628        1.74149406076452
H            6.22500193517172       13.78036593065391        1.15098852329649
C            2.18510221863376       13.96765863679171        5.10334525030239
H            2.51829726843136       12.97299868482413        5.38069709942263
C            9.78469284358386        6.48511320432359        1.89143709565829
C            8.56545174204983        4.37825802910541        3.40522861136575
C           11.90544273570899       10.99170087841613        3.58871552629943
C            5.57400171917673       16.11634957724705        3.52734470794365
H            4.88569506610131       16.34080847786499        4.33398714230861
C            9.60120270539103       12.87176256539397        8.90965562215087
H            9.57704850227685       11.89623312730274        8.44213852719746
C            9.43189374699142       15.14080827039334        9.21402972781924
H            9.25126263550729       16.19151493154916        9.02948183821620
C            4.47836941493433        4.76761745219814        8.25589151435739
C            6.86483774163934       12.36927298134012       10.80014174480198
C            5.41959589832190       10.02965398539910       11.55182327330649
C            6.70215400533876       17.90072203955943        6.79885886785464
H            7.04407086832452       18.92851391698493        6.75722331390597
C            3.17658723570501       12.40046022055881       -0.54389001865840
H            3.38970618169595       11.83282965979192       -1.44013787472968
C            3.50607805576420        8.38776341815407        0.14233519712934
C           12.03581472950894        8.24610112467507        4.34025689212558
C           11.02324189000742       11.29991135791813        2.55266050747173
H           10.02240541215372       10.88367360431595        2.55660259024763
C            1.16165753347671       14.57471150938740        5.81330602222997
H            0.69634591323850       14.05258140232289        6.64216067446701
C            3.87073001795047        3.97564824446632        5.59201034340985
C            3.92100927940813       12.35556654904662        0.65611823560481
H            4.81706851835314       11.76862900521591        0.82315750383789
C           13.20865769620228        8.01644846696281        3.56183512931753
H           13.84834763086332        8.78476047510002        3.14765211029441
C            2.78065194763309        7.72356415906719       -0.84983527905637
H            1.82136043276095        7.27720976934073       -0.61248490295911
C            5.78498570606578        5.13303995425842       10.25632061977106
H            6.40450561343123        5.78423582377315       10.86247568675038
C            7.62202047366949       16.86595428786922        6.71328588523631
H            8.67670506820183       17.08840344386267        6.59532511690655
C            7.44006021457840        6.07926821046967       -0.11204133686101
H            8.29966237760748        6.72112804535310       -0.26863421786319
C            5.24545399398789        8.85292891311352       -1.47235921649252
H            6.20754733691837        9.30196635132295       -1.69589411198307
C            7.53818352318896       16.69282298162106        2.26356598373958
H            8.37027785964798       17.36117520566209        2.07474907450287
C            6.63619459296674       16.97271146675856        3.28046907993373
H            6.76170762098356       17.85917050583633        3.89226788879476
C            7.20571516194679        5.52651015308664        1.14774625978851
C            9.23058672924127        9.44340477138045       10.22097046546617
H            9.05175136571071        9.53102283898832        9.15555541918558
C            7.42670269193718       13.03292321999290       11.93012282032343
H            7.89292868462562       12.54879172234951       12.77782198620667
C            7.19451551879145       15.53842101674167        6.76881505773361
C            8.66105003223508        3.16750616738664        2.71438416200207
H            8.50753237896110        3.14175291893084        1.64138085766096
C            2.17991940455789       13.39655879805416       -0.40641750101395
H            1.49615020486090       13.72249901041241       -1.17929351923566
C            5.82936419873819       15.27238096498692        6.89180255689960
H            5.48752969821580       14.24277906127355        6.90765809489943
C            1.72693596709254       10.00365102436260        1.69313890479841
C           11.55966597176310        6.97327665656585        4.77576798546467
H           10.74688534501711        6.80938527875840        5.47641816815119
C            4.74854331101714        8.93333600743367       -0.18237207811111
H            5.33793197958623        9.43421523425146        0.57818679366356
C            4.23731270797354        3.45602725845959        8.67223773097605
H            3.64870192314755        2.79145154269606        8.04943229752203
C            9.09246160775221       14.07231076002266        8.33150627453624
C            9.05361232121235        3.21149983979855        5.46766165917231
H            9.20851194042421        3.25014389733324        6.54079980948475
C            2.30578725586542       13.97266340819026        0.87868651849142
H            1.73542555003289       14.81151875989697        1.25487616366229
C            7.15191100018885       14.41446700587602       11.81227229954114
H            7.37672521128988       15.16856493884471       12.55507820798504
C            6.26129044671190       13.36898674536502        9.98278045743802
H            5.68763490883075       13.17169875452489        9.08722742755762
C            1.84204776592015        7.19789701693131        2.17273670208293
C            0.29147400506859       10.79850453947055        6.92493998544249
C           13.45967460426365        6.62563273219465        3.54374679174491
H           14.32549510102104        6.14635063037670        3.10571468145868
C            9.45514572738466       14.51435764615442        4.22354703426761
H            8.48532940841876       14.17897987827067        3.87084664233958
C            8.49031355978268        9.73205018043771       12.49025191922582
H            7.73711309687321       10.04629684314937       13.20430594465819
C            8.75968933348497        4.38129816352493        4.78682924874216
H            8.68948572398153        5.30958784645580        5.34381858097420
C            7.37506184714531       15.54583922643909        1.49709955491782
H            8.08018702767420       15.31269337587059        0.70716445777175
C            3.28580626082193        7.63139383630277       -2.13806083601264
H            2.71499279152753        7.11487709846484       -2.90147255398799
C            2.51871673361521        8.15032579822125        9.31824915451846
H            3.58099482919876        8.27252827461886        9.15161838314453
C            2.73771683260630        3.26009325678042        5.20575116072535
H            1.76180170054613        3.54756344764608        5.58039625433768
C            2.78981840017195       12.87991964047229        8.69990531080595
H            3.32080452257509       12.89440401464635        7.75400045746420
C            2.08378684464650        5.71701689439777        6.99902513162918
C           10.40985955693026        8.87342634088530       10.67080607586301
H           11.13586590205965        8.51379785233458        9.95012296808453
C            5.53150734373357        3.83133895972714       10.66561099507956
H            5.94456196275000        3.46500643816002       11.59828796334970
C            2.79978206672879       14.61812565230287        4.03162279326479
C            2.36052797562734       15.89809069946632        3.68288460470689
H            2.82217273577758       16.42139061511465        2.85328155356021
C           12.20963886004789       11.60003560349282        6.78944008564156
H           11.78993912841817       12.36265172391945        6.14120726925514
C            6.43317635938012       14.62345117856264       10.60990401502809
H            6.01423343059419       15.56291096704237       10.27392481931466
C           11.30569305251356        7.85341178297509        0.83623329764134
H           11.75480391027087        8.72345048168974        0.37566576664885
C           10.15167828436418       14.60062730184681       10.30447475929488
H           10.61711072813152       15.17052503520502       11.09790229250204
C           13.18080397812278       11.56133250132337        3.57634820650188
H           13.87884970033877       11.34430445252698        4.37716404555618
C           12.44330712736130        5.98296150564103        4.29189726503098
H           12.39932205950399        4.92796468760029        4.52843265615178
C           11.76114423274090        6.51771241623073        0.71530381932934
H           12.62229731527424        6.19004566563301        0.14771212889082
C            5.34785256845893       17.62458081407766        6.93710997488707
H            4.63229763951375       18.43592176518618        7.00286924240213
C           11.40066919893973       12.13571227878882        1.51565388586785
H           10.68876286845509       12.34587853271236        0.72331922432323
C           -0.03294227940262       11.34390907107924        1.06096318252921
H           -0.88464516408393       11.72854474032906        0.51553393202764
C           12.67326785004198       12.69065634229146        1.50772077678299
H           12.97762089404181       13.34681479271550        0.70043824725407
C            5.11811517942265        3.59471749342887        5.08652945206001
H            6.00524725895336        4.15075026687864        5.37332256093483
C            0.35973592248514       11.73123436873772        2.36558450012259
H           -0.13734777724565       12.46123034133840        2.99083313293987
C            5.25870183776011        5.59798676883697        9.06193418566558
H            5.46487132111921        6.61290682939694        8.74041380874385
C           13.55620029800609       12.40699636447120        2.54274007726415
H           14.54828665633968       12.84436518213646        2.54276928325524
C            9.14448547879995        2.01291952307340        4.77413926979875
H            9.36810181849184        1.09256436140048        5.30116783601131
C            0.26088206056378        8.56428235731484        9.34312816217173
H           -0.69694114658843        9.04381231946408        9.18988394919023
C           10.63801580587991        8.74306036207803       12.03312131665595
H           11.55879577567548        8.29683733741694       12.39063887612948
C            2.40406188369733        5.92610356714526        2.02631677695406
H            3.40499400791112        5.82943689503831        1.61876757986782
C            4.75658641464316        2.99554008615180        9.87213854659538
H            4.56207879099021        1.97618557831452       10.18563251986596
C            5.22638497055361        4.44624619031651        0.27310320974476
H            4.36930069875790        3.79929879848189        0.42367076372862
C           -0.64688018130359       11.72832558600740        7.37628011438930
H           -0.47599762994973       12.26544988993896        8.30221197553342
C            1.50049089316810        8.99311547872767        8.78240222718302
C            4.51174654928244        8.20369527853955       -2.45571479752723
H            4.89427531368416        8.13749569231883       -3.46768361235310
C            1.91594528491557        7.23392900536000       10.20788305200142
H            2.43939419356012        6.52187996562177       10.83205033611703
C            0.73829019448867       15.84897762206057        5.46136981594347
H           -0.05889750659071       16.32939580388317        6.01681512787190
C            9.67707826026878        9.17406851645500       12.93957227916859
H            9.84949170397563        9.06644154276495       14.00449130465392
C           10.25615952457888       13.20059802776044       10.11734027275008
H           10.81359393181677       12.51434671413637       10.74109802172821
C            4.91046348623013       16.30681565082972        6.97910711702164
H            3.85319796717741       16.08451426985950        7.07193900416126
C            6.58183152730016        5.80977884865714       -1.16734826858802
H            6.77764921388019        6.24195217932405       -2.14196764082618
C           -1.80388891109715       11.96773056892096        6.64913394932322
H           -2.52329908665152       12.69360651958897        7.01070293345447
C            0.04723543533000       10.12501843514534        5.72545840579024
H            0.77937344014716        9.41650110204036        5.35310666604529
C           12.73249225649297       11.95719448697557        8.02163721496630
H           12.72398898007121       12.99714592446443        8.32886625583207
C            8.94596782188551        1.99468265355134        3.39860798497825
H            9.01714212105534        1.06050783043392        2.85302596357064
C            0.56473157097674        7.31039788534027        2.72348441469789
H            0.11731852644829        8.28971485614273        2.85145383624455
C            1.33866832290483       16.50683619489482        4.39574073890585
H            1.00871357899943       17.50123070922735        4.11739594108726
C           13.25708268344658        9.65432397121520        8.46653769472802
H           13.66648359802389        8.89259622753980        9.12034539461034
C            1.32520222864389        6.68698742096333        6.28117993662227
H            1.71721207140590        7.32687853663826        5.50149217983160
C            4.09607596575069        1.80357492619954        3.85342230917072
H            4.18256642893478        0.95892026743991        3.17983097892643
C            5.47562623994202        4.99327331404820       -0.97942665345195
H            4.80563948484115        4.78625047030360       -1.80591996687827
C           12.73559975652178        9.29347085551306        7.23300581612332
H           12.72799627611491        8.25067442746871        6.93587831047424
C            2.85253888522235        2.17954610050322        4.34187512105032
H            1.96560182254285        1.62632505943714        4.05439958061331
C            0.42141294092726        4.91788940973187        2.93545788315952
H           -0.13103440121860        4.03324639261957        3.23044537611558
C            1.98510460453577       11.78301077338716        9.01651037269440
C            1.17259437894402        5.00506382245059        7.83400820427939
H            1.42085903817934        4.15444421216431        8.45485060305195
C           -0.03109942161332        6.56080159464550        6.65573215251573
H           -0.86125161655450        7.10187172156809        6.22105838169087
C            6.07763958147170        4.72022524322005        1.33168009660104
H            5.87055086930046        4.30058562911503        2.31074025268475
C            0.52315503912484        7.48978262312875       10.22371043811110
H           -0.20312131497924        7.00543797441193       10.86316766814912
C           -1.11364436345016       10.35744727998420        5.00600732161636
H           -1.28943610115783        9.82366295058351        4.07895921886428
C           10.45634741881197       14.80757523516273        3.31394717648843
H           10.26546543204729       14.70741651710789        2.25175108175583
C           10.94361664561579       15.04143988911072        6.04011874603602
H           11.14112557143515       15.13257099880533        7.10225617960018
C            5.23058952000665        2.51241018961381        4.22934919595921
H            6.20463562358095        2.21681030801011        3.85624855176693
C            5.34359585295753        8.66415692838139       11.84345683408493
H            6.12924276997577        8.00040193018118       11.49873852724858
C           11.70733881745007       15.20952021654866        3.76411531959833
H           12.49638783977505       15.42369727577801        3.05265501971482
C            1.69445933169113        4.79537755573390        2.39259951329529
H            2.13879905106844        3.81509075929511        2.26286127330226
C            4.39473315075175       10.87015809534573       11.98927031173018
H            4.42964315485818       11.92974047674841       11.76023611416850
C           11.94860028981084       15.32392165876156        5.12593456297450
H           12.92555647007553       15.63161660096839        5.48101583473665
C            2.91643001690366       13.94330542080778        9.57953380120501
H            3.53820439641114       14.79155354645046        9.31641765939099
C            2.24799041672276       13.91999580115950       10.79620030740818
H            2.34874520302827       14.74878564110288       11.48723979280798
C           -2.04138204453595       11.28309397531268        5.46545163042108
H           -2.94578191956829       11.47261991802534        4.89921559616611
C           13.25649566622470       10.98468667537807        8.86403160864518
H           13.66045476559506       11.26383903271008        9.83038489317669
C            4.28200819316328        8.15595153789469       12.57344763558642
H            4.24176427313713        7.09631369895992       12.79957781829351
C           -0.12487287281617        5.52148254480907        7.61303637658819
H           -1.04066546904539        5.13160595037735        8.03769083716336
C            1.31999106411216       11.76869391464773       10.24393881133703
H            0.70135116473585       10.92001181053688       10.51342275965734
C            3.27209704676901        9.00290468624872       13.01261415236848
H            2.43850117046307        8.60621318627096       13.58043490509765
C            3.33342421504815       10.35829133768393       12.72048030657866
H            2.54827330151201       11.02278869173464       13.06283395656810
C            1.45079515417628       12.83175519437813       11.12543147360928
H            0.92391357717813       12.81229238513966       12.07262040248843
