327
 energy: -771.535537865807 gnorm: 0.000593447398 xtb: 6.5.1 (579679a)
Au           2.61951472362425        6.92878689534510        0.25571306628553
Au           3.51784394001577        7.93640955156664        2.64663931078722
Au           5.41104645304857        6.66553376543186        0.74312029884172
Au           3.28746283566356        5.05948586610918        2.14372499556322
Au           0.84808386319759        6.70740603441409        2.38049141008028
Au           1.33854380114593        9.25627216839936        0.97540287975086
Au           4.04802366703802        9.17839808234814       -0.11064451522438
Au           3.80820803344654        4.80982689649041       -0.89124296208640
Au           1.01748289560287        4.71565206727935        0.19181443359890
Au           0.49883519209869        7.36028152551580       -1.25798378520103
Au           3.19035242647389        7.34936689507217       -2.28951808328664
Cl           7.77588123963753        7.37675412429512        0.29686161648517
Cl          -0.14897428456051       10.93090547473014        1.93925807945523
Cl          -0.33866414057989        2.73443172757722        0.61844924320205
P            4.42758925597566        8.96649359044909        4.59849016464492
P            3.66833999070742        3.23503687323033        3.63514077011545
P           -1.10073310415615        6.83533055072930        3.76891387818365
P            5.31117587100889       11.13363731000442       -0.60645430173003
P            5.12136589192402        2.96008644138918       -1.62864196613234
P           -1.53478648234415        7.71175564458835       -2.41324446997056
P            4.02533408918446        7.78507216926907       -4.45500969194805
F            9.73545138901182       12.38287671181308        5.79303777061823
F            7.85391893905420       13.42494553797808        5.60962571217639
F            8.12080684440472       11.95120271953579        7.15704546988624
F            3.68139896649400       11.86788242977971        9.06794808109822
F            2.40421607340672       13.52733978844358        8.54495243565518
F            1.53716718367562       11.62993563970080        9.09037725736379
F            1.95097488754812        7.04716766442781        8.87943930958931
F            3.60046189199134        7.07046791558681       10.26762588996137
F            2.94339838550669        5.20649105954931        9.41006343700271
F            4.46815318013113       -2.81407007595216        1.56757350828922
F            5.62338376792316       -1.20175488351888        0.71990856732003
F            5.86585042902774       -1.72545782430728        2.79909851410939
F            0.89963941767310        0.91498811420480        8.89516517863741
F            1.86293690162083       -0.19604628277507        7.31498196249360
F           -0.16864287354386        0.48334872364819        7.07249866057146
F            7.07137693002466        3.23828425794884        8.23448178185080
F            6.63117970629431        1.20342743805143        7.67380500673635
F            8.64261839886978        1.96490989541500        7.48390177219777
F           -3.32345907645896        2.82065876112135        8.24717054275631
F           -1.64664615316080        4.04640216940450        8.82702530091767
F           -3.49859397205813        4.97194739661724        8.22870309611009
F           -3.16134082687194       11.65494463036356        4.77949582157631
F           -1.37061297741870       12.64375948263650        5.47062536825218
F           -2.85927159098209       12.00009933885372        6.88671472306296
F           -6.13554207158986        4.82546639857179        1.46234369296606
F           -7.26997665483511        6.46430638068756        2.28459271086468
F           -6.15455974071644        5.15928096135944        3.59158302015291
F            7.53387697371528       11.81472995153316       -5.43541332068557
F            8.05691474964671        9.73162860003609       -5.58791338054344
F            9.60320163869531       11.20896246302194       -5.32312318746168
F            8.92906593173009       14.71844519563478        1.15082990117269
F            9.34585080189434       13.45199978786941        2.84357248703690
F            8.36891825145115       15.35482863966625        3.13513441689154
F            4.06223365625732       16.42628658663790       -3.95036776538404
F            6.00569304540509       15.57504229324181       -3.55416798616338
F            4.80421530477751       14.81506671328829       -5.17658351784258
F            8.32788578434315       -0.35634361424772        1.44552662646629
F            7.54976448150422        0.88135957229406        3.03167111618863
F            9.64329879732716        0.96716747149613        2.52693259584702
F            6.19342397850660       -2.26464098227416       -2.34105493115062
F            4.68216294579871       -2.32866622343155       -3.87393186826840
F            4.37230769975983       -3.37978480749121       -2.01710745016664
F            9.63060662246679        2.03346278623845       -4.45903750242526
F            9.56152078296062        4.10122898760434       -5.05628275192828
F            9.27242575897902        2.54421111827122       -6.52422886410387
F           -6.78816848936828        6.57412726390527       -3.07407986992050
F           -7.30833434175429        4.96464385175202       -1.73462107260938
F           -6.99700655960535        6.95683373027559       -0.96462645523298
F           -4.50326645672122       11.33951471779495       -5.03336684265586
F           -4.60924245329381       13.12831005447953       -3.82945385570748
F           -5.92565708086598       11.47161626392110       -3.41982942726792
F           -0.93146624625151        4.52593122766931       -7.91164214050343
F           -2.77576693850200        4.30182112859892       -6.81676129124517
F           -0.90636710767035        3.74286666764111       -5.90361819792317
F            8.09496716607141        5.18753348118215       -7.42646303547885
F            9.78386067778077        6.46353823043358       -6.99718379033905
F            8.06509081791275        7.25143439018815       -8.03657023034252
F            1.11314994348938        7.52480659767405       -9.55810183737295
F            3.23321664282343        7.85725220888869       -9.76793847759564
F            2.37521898989252        5.96147060739359      -10.34245451862636
F            0.02159906664474       11.45327088817901       -5.96039585144110
F            0.81209725913636       13.20868845307834       -4.98830992274063
F            0.34364799823451       11.44746652566526       -3.83255276674073
C            6.07485935748563        9.70775770507927        4.33845709147399
C            6.59991584631248       10.69826530374453        5.16769904007175
C            7.89053624694793       11.16964043114798        4.95717755155753
C            8.67201381694911       10.66951362883686        3.92063574701363
C            8.15275497362635        9.68460626301104        3.09314206989380
C            6.86618104767835        9.21337024262457        3.29931854095691
C            8.41746763827847       12.23563682246361        5.88404954656364
C            3.37811134855480       10.28937684481855        5.26895227230127
C            3.43433336450921       10.76174840899717        6.58261879520403
C            2.56232959536077       11.76219935501027        6.99414617476946
C            1.63727349758079       12.31520383899042        6.11256778469483
C            1.57808471203275       11.85137984664387        4.80731199428804
C            2.43536190313259       10.84379351656758        4.39843525646261
C            2.55787310507151       12.20759751752493        8.43357079934025
C            4.76537696478426        7.82396284225080        5.97924913435077
C            3.84588333309701        7.61518472231998        7.00797423087871
C            4.11098721841384        6.68334604832474        8.00464196022516
C            5.27595513407806        5.92320807924376        7.97459680768205
C            6.17705010744569        6.10458619256517        6.93552777594634
C            5.92573931046789        7.04329085913638        5.94829242258268
C            3.14944038178412        6.50307514927719        9.15040873041805
C            3.30029864023039        1.58541971510452        2.96814223739040
C            4.26866211937203        0.62033951012426        2.70345575569471
C            3.89062192052794       -0.60696753930282        2.16803040083539
C            2.55545720843108       -0.88746520944587        1.90277494182839
C            1.59102026634362        0.08123578653799        2.14827006293964
C            1.96210029113180        1.31170983012233        2.66027653648874
C            4.96486554556642       -1.60591029450922        1.82700309084436
C            2.67653332734921        3.23777858357431        5.16622925216185
C            2.27297875570803        2.05736576798586        5.79335338794696
C            1.51358362388728        2.10485347458066        6.95513599880026
C            1.14941528634305        3.32468123454231        7.51289054155074
C            1.54236918224763        4.49905726292512        6.88856503768334
C            2.29397266467203        4.45911643673848        5.72507759342120
C            1.03420484335359        0.81729498900246        7.57549219297501
C            5.38235513858383        3.19401980812900        4.24786704291280
C            5.72804935146529        2.65819079923689        5.48873982221438
C            7.03392891930625        2.76057561621750        5.95074754839243
C            8.01231430748417        3.39005392195948        5.18726965603580
C            7.67338257616756        3.92075345409041        3.95113371889221
C            6.37016413665808        3.82797314216322        3.49045594201465
C            7.35585851165647        2.26947965448575        7.33813748755495
C           -1.44435245811730        5.28140715654413        4.64930333473621
C           -1.94665720098994        5.22088978078019        5.94896997328815
C           -2.17966972462925        3.98736035633867        6.54628871984103
C           -1.92188981206310        2.80450666321071        5.86160043754635
C           -1.42811162655564        2.86174347030563        4.56581151001063
C           -1.18516330807133        4.08718462782474        3.96785643053173
C           -2.67897266213290        3.95100681564027        7.96740462314978
C           -1.02844080577394        8.13546979794803        5.04257760287604
C           -1.70995866964403        9.34745053019528        4.92429646904544
C           -1.53615232235268       10.33961493491698        5.88014234397766
C           -0.68992253243594       10.14213235014395        6.96681237409385
C            0.00627995840817        8.94776476461308        7.07837869706896
C           -0.14848373045092        7.96292104231607        6.11633153946671
C           -2.24695066637807       11.66215369259950        5.74797649916190
C           -2.63853343359886        7.16873136324282        2.85499616262957
C           -3.77660692431305        6.37471050606118        2.99421670710120
C           -4.92288093913030        6.66625728120899        2.26566960426562
C           -4.95223946583379        7.74700857367990        1.39069419192339
C           -3.81713933323030        8.53030078596115        1.24017358006913
C           -2.66618923017336        8.23945183574963        1.95533814847293
C           -6.13425975198911        5.78137939603554        2.40951642429883
C            6.88905865916457       10.88675369810580       -1.46994269426348
C            7.02059179750844       11.01474641309116       -2.85358401681564
C            8.23444110859290       10.72616127342444       -3.46666731197421
C            9.31593801636704       10.26294998916996       -2.72377634455262
C            9.17381312660650       10.08561116996716       -1.35558319938817
C            7.97384848031466       10.39358148547777       -0.73638398455093
C            8.36840973071388       10.88223135502145       -4.95647698746755
C            5.71488132966428       12.13660345645233        0.86193332349406
C            6.90485855952876       12.84451638018252        1.01668099312151
C            7.11478769469793       13.61041780007317        2.15742912881886
C            6.13977179122207       13.69927860261006        3.14439532293905
C            4.95053480125207       13.00033324087742        2.99011103354807
C            4.74504736532320       12.21887907806307        1.86512210127231
C            8.44267146590080       14.30374810527432        2.32490332326029
C            4.34901726953495       12.34476894798194       -1.57088080007283
C            4.92918997195534       13.36389403371762       -2.32740661740576
C            4.12191961736805       14.26508740648473       -3.01029105283126
C            2.73559006660383       14.19557629428983       -2.91370100732298
C            2.15576775413172       13.20322595658567       -2.13740964256825
C            2.95604318052604       12.27661326320092       -1.48934470052988
C            4.75461044456852       15.28882045899841       -3.91646188559206
C            6.63007590583637        2.90078368484101       -0.61863011677708
C            6.96249972841309        1.86179541028995        0.24823527958985
C            8.11214135157412        1.95425773299458        1.02802297308753
C            8.93745491694061        3.07097568562548        0.95286146533060
C            8.59764854768691        4.11694256207789        0.10652377357155
C            7.44953999137435        4.03606123048366       -0.66162827334450
C            8.42389896474191        0.84707517597849        2.00058195996397
C            4.31367216142533        1.33599783353015       -1.51946306242012
C            4.92351648945365        0.16952818519387       -1.98718520492373
C            4.22119930334630       -1.02840607440857       -1.98275026849222
C            2.90584677761669       -1.07943121239797       -1.53028954515886
C            2.29776178392866        0.07729348975416       -1.06380602316271
C            2.99882029103405        1.27332413558259       -1.05434682001513
C            4.87573259507167       -2.26506807025147       -2.54551901880200
C            5.76134165519530        2.96404852771229       -3.33860399149203
C            7.11669117333464        2.90049925371291       -3.65527216821953
C            7.52735960120084        2.93960336425185       -4.98281912086135
C            6.59927585304261        3.04693342572965       -6.01142028181558
C            5.24772435401723        3.10846402164309       -5.70045803748609
C            4.83337563973208        3.06836131082676       -4.37915446088366
C            9.00623964259774        2.89326441331411       -5.27031274660101
C           -2.81259195878370        6.52387598493213       -1.89351066417819
C           -4.17830777140343        6.73457968799141       -2.08297686487401
C           -5.09238383185957        5.77741623666022       -1.65818501972102
C           -4.66639148197790        4.60804019876005       -1.03594870658485
C           -3.30957476230869        4.39739160813309       -0.83853155581833
C           -2.39710897707037        5.34729530114620       -1.26516497769153
C           -6.55957451625272        6.05623696653539       -1.86200260280841
C           -2.25027762467313        9.36683115396769       -2.20003235748225
C           -3.18545260857801        9.92787714400512       -3.07242164250572
C           -3.66350498599623       11.21181824966303       -2.84019811099308
C           -3.23064745470485       11.94839295518645       -1.74121248575445
C           -2.30113796712932       11.39586564238688       -0.87262340610111
C           -1.81599328496312       10.11985081881625       -1.10704897102715
C           -4.67989507112451       11.79591951943627       -3.78818637729859
C           -1.41391949337901        7.48944833099840       -4.21521878865502
C           -1.56093636042065        6.22371391971027       -4.78219721660955
C           -1.32750523489190        6.03559663977390       -6.13973864170572
C           -0.94203937219889        7.09842732556543       -6.94951347069571
C           -0.78334391975617        8.35684675973681       -6.38606984988955
C           -1.00882411623741        8.54951758210070       -5.03243798834437
C           -1.49436914095644        4.65104918738678       -6.70458578273198
C            5.80444773212915        7.43519185383048       -4.56675685779279
C            6.45020435091512        7.09941969748154       -5.75632361423769
C            7.80668824497938        6.79634540631491       -5.74730854373562
C            8.53191722976988        6.80691196092067       -4.56051919680859
C            7.89234562278591        7.13581612557571       -3.37319497195693
C            6.54310307959683        7.44773322556559       -3.37926781317719
C            8.45745234291610        6.43116975578522       -7.05715499997172
C            3.25635063892115        6.79654977917995       -5.77484202177113
C            3.14216019337171        7.23258863303548       -7.09519850374188
C            2.51181526154852        6.42929947863219       -8.03757054189055
C            1.99768812662993        5.18610562440279       -7.68337049180261
C            2.09619159811803        4.75649594535917       -6.36779439692227
C            2.70903841090249        5.56109261904519       -5.42156081364509
C            2.31942280113373        6.94129407721544       -9.44188569631920
C            3.79091111830756        9.49460074658513       -5.03620928440806
C            2.52240884654830       10.03949854984755       -4.82854985874941
C            2.24819911902487       11.34629814792801       -5.20854359635421
C            3.24092248961564       12.13495442071889       -5.78329319447089
C            4.50584656238026       11.60062332356624       -5.98010841061673
C            4.78010243956451       10.28922780439744       -5.61666360019346
C            0.85642553986476       11.87722468944038       -5.00201797272061
H           -0.48062913610758        9.19291677299491       -7.00499943255312
H            1.67673866132536        3.80022220004085       -6.07859810835309
H           -3.53179703535022        9.38011023750628       -3.94093746869615
H           -1.07896733298690        9.70139018974759       -0.43321225667925
H            5.90496290222259        7.07275339379028       -6.69279191578195
H            3.02570560577737       13.15799827451874       -6.06592836952158
H            5.28517583767613       12.21078396123854       -6.42010200912022
H            5.76692629293752        9.87876153544788       -5.78905824183315
H            1.51072767343018        4.57035612759178       -8.42945059335874
H           -0.76232809203736        6.94078489226507       -8.00582430992182
H           -0.87980768383255        9.53605910042566       -4.60433642656618
H           -4.53927748422565        7.63849153111744       -2.55967918953718
H            6.05112151201927        7.70074714348567       -2.44692281622321
H           -1.85731850974330        5.37871093661315       -4.17112784376876
H            3.53283986663824        8.19892778006507       -7.39155350323420
H           -1.94281688375111       11.95167678065900       -0.01392376806484
H           -3.61448074494100       12.94839356540266       -1.57952861107855
H            1.74439797788926        9.44076575722880       -4.36650394046449
H           -1.33960777870465        5.17530042570181       -1.10479487649873
H            2.76154734527869        5.23699779078901       -4.38799867505474
H            9.58483691546128        6.55427383984157       -4.57156255431784
H           -5.39485069216976        3.87866749543294       -0.70456971557854
H           -2.95313051070215        3.49826579515600       -0.34887153318458
H            8.43736455463279        7.14877077660300       -2.43601594614951
H            4.51212083087118        3.18266715833053       -6.49287026409120
H            5.94069859746515        0.19216944021533       -2.36083246287391
H            2.51374826405028        2.17296761422794       -0.69368285056603
H            7.86481127736998        2.81046293128849       -2.87714428085357
H            2.36661832253681       -2.01872201182747       -1.55000554195825
H            3.77465283052726        3.10212746385972       -4.14553537721770
H            1.27181930110575        0.05560456031725       -0.71673960468730
H            6.93368653799003        3.08086220823193       -7.04068262738729
H            4.14283643480513       10.34979226726372        7.29130060869516
H            2.92439912425563        8.18383652178964        7.04066196418907
H            5.47083873487337        5.19598036354049        8.75340695984354
H            7.08408480118569        5.51300633268437        6.90086812038160
H            6.64217547185128        7.17853820747890        5.14542654454089
H            5.31217543916194        0.81088091139575        2.92010166469682
H            6.47209357816327        8.44724513553004        2.64308142417379
H            0.96340762233688       13.09123037541477        6.45447853428766
H            2.36205873294709       10.46790008818163        3.38524456202344
H            2.27776344778707       -1.85313518472716        1.49853707084229
H            0.54903204968990       -0.11560589984434        1.92725599193243
H            9.67398406229784       11.05163824733047        3.76921522252008
H            6.01538785558046       11.10506171131004        5.98457333368268
H            0.84820164093218       12.24786416541592        4.11130662220969
H            8.74837574319208        9.26871258155881        2.28906015186947
H           -2.16382609958842        6.12819891295228        6.50019097515267
H           -5.85584932204041        7.96737104231666        0.83595936389559
H           -3.82832562635058        9.37338099875948        0.55972965635211
H            0.67084742838427        8.78642324337301        7.91809568750714
H            4.98278626329963        2.17012793215150        6.10589709951927
H            9.99735249840084        9.69776230972385       -0.76878937147136
H            6.10822880783845        4.26083357785138        2.53138972545629
H            7.86832890295586       10.23306248312323        0.32953442298271
H           10.25258139917422       10.03830914177596       -3.21917958356984
H           -2.37891288181178        9.52770539810951        4.09213156554352
H            1.20564561106892        2.07096954580438        2.82306784490541
H            0.41473218122255        7.04048332050694        6.19845805900233
H            6.18453773825590       11.34196028416115       -3.46075594726342
H            4.18315969954721       13.05964659532742        3.75300568621624
H            2.12102242238886       14.91164124598032       -3.44528110754488
H            8.42339579260991        4.42081900816890        3.35038881328414
H            6.31530860331385       14.30663177960573        4.02338424188022
H           -2.10652335214294        1.85129159948545        6.34150026484806
H           -0.57486462297244       10.91910710261802        7.71294615058620
H            3.81858547189661       11.66584478761817        1.75541950296577
H           -0.79638394502427        4.11703211455751        2.95586381305078
H            1.07786877424322       13.14083536538162       -2.05159284815163
H            2.49584925682416       11.48742734761087       -0.90587056845798
H            6.33860097763156        0.97893989842456        0.31964976735342
H            6.00623347924205       13.46543306895883       -2.38766460849268
H            0.56426780044123        3.35364650917888        8.42340676067799
H           -3.78139729027799        5.53196490744673        3.67473321573988
H            9.21335945510670        5.00657415984988        0.05848443875942
H           -1.78281045117228        8.85349944549830        1.82200162174023
H            7.67398128560945       12.80929734299637        0.25442177100907
H           -1.22926052512814        1.94750434373680        4.01939647340280
H            2.54400109602988        1.09401394337057        5.37865955409660
H            9.02540387915780        3.46477417794322        5.56317012793584
H            1.25684089739748        5.45036139147358        7.31749771611701
H            9.83526282445755        3.11989824324311        1.55661450358455
H            7.18074721839630        4.86522532178023       -1.30658330941431
H            2.58985125253879        5.38433845102011        5.24105017846493
C            1.10047435677384        1.45131119782355       -6.82501006788380
C            1.99623626624907        0.85124895054753       -4.67480111507436
C            0.95722297909795        1.35448528218210       -5.44626849277651
C            3.17573227900051        0.43879920309629       -5.28063779693277
C            3.32081512744823        0.53986356550583       -6.65831885243656
C            2.28427576276527        1.04801488640956       -7.42986326134611
H            1.87998351693598        0.77149626322389       -3.59985891581377
H            4.24113763090226        0.21488429741039       -7.13045490569718
H            2.39599834201131        1.12326592783588       -8.50566322303417
H            3.98255486317506        0.03390740564376       -4.67980016787538
H            0.03251586270540        1.66420971868617       -4.97377479987166
H            0.28522888805238        1.83469377500730       -7.42794249554589
