299
 energy: -455.490386331609 gnorm: 0.000771247152 xtb: 6.5.1 (579679a)
C           16.63229424521854        1.46206097005829       26.95397591279031
C           16.78199741568730        0.95359748238493       28.24942341417874
H           17.77302712955669        0.88870069580538       28.68653187134523
C           15.67167726629640        0.54015272757911       28.96689777766474
H           15.79477180920887        0.14673794235877       29.96959874282332
C           14.40385470690283        0.62989731534051       28.40623036561231
H           13.53744061571541        0.30568620649877       28.97029994469116
C           14.24719388296263        1.13978357299344       27.12348776857070
H           13.25763326771866        1.21495917366834       26.68724190186296
C           15.35155467623446        1.55557001498174       26.39856931618235
H           15.23116908096939        1.96032241915574       25.39939770009107
Au          21.43169890575111        0.35793767400543       22.99126826764580
Au          20.60134085202123        2.81385861887423       21.55988974570909
Au          24.41955757905691        5.12322791924905       23.00166704721307
Au          23.04725277204937        4.13399746459421       20.64052455381339
Au          23.05717256004449        1.19788466460941       20.72918371187796
Au          20.40292724478427        2.74659542115170       24.54163566545490
Au          22.93988939337861        2.74072376167873       23.08866404700419
C           20.73225665517450       -3.19511584715724       22.90688495529455
C           20.88614855766877       -4.38054190536027       22.18525102542210
H           20.75066797876068       -4.39062337277036       21.11032363509413
C           21.20718481768185       -5.56015931470883       22.84121905018063
H           21.32050363289798       -6.47438580756427       22.27037974473700
C           21.37768375079910       -5.57548595876775       24.21851112396510
H           21.62400960493720       -6.50127649140951       24.72461122141510
C           21.22888516901112       -4.40187083997615       24.94647498449156
H           21.35518935367210       -4.40539144069908       26.02340686320669
C           20.91310837717715       -3.22187045088765       24.29402589231122
H           20.78954921608712       -2.30509945512506       24.86179715290532
C           18.47437937923142       -1.50916964362376       22.36819957792508
C           17.64152960901494       -2.53232493877233       21.90177297491001
H           18.07238261855153       -3.40825681375997       21.42907447748419
C           16.26743568749565       -2.43573874157354       22.05208740498291
H           15.63124444689910       -3.23381211034678       21.68782022050067
C           15.70683955712683       -1.32598863846746       22.67253280082156
H           14.63199696124876       -1.25716445668152       22.79069624984839
C           16.52491624178476       -0.31070419952844       23.14707796702775
H           16.09584374729294        0.55398744104063       23.63974032769089
C           17.89968142650127       -0.40174396075496       22.99688562421426
H           18.53561376795825        0.38923915880292       23.37941520104659
C           18.35557127689230        2.00382343829063       18.85149411040513
C           18.18245572931278        2.06561498504563       17.46763385083839
H           18.41994818296613        2.97242551246141       16.92434597929654
C           17.69612457394441        0.96612347772042       16.77489321410231
H           17.56286308388182        1.02829063587569       15.70118767874112
C           17.37674131376144       -0.20443728169164       17.44826427927668
H           16.99386382464900       -1.05805720055550       16.90179156672180
C           17.54630895475363       -0.27789836512902       18.82511771047252
H           17.29382791350602       -1.18669237623210       19.36006572423656
C           18.03660543324766        0.81561826494496       19.51926020631996
H           18.16574718071930        0.76013261146497       20.59598973813131
C           17.46711766845583        4.11870153005596       20.57839476392233
C           17.36019459005657        4.28639634709673       21.96128649841026
H           18.16544809923421        3.94837038977701       22.60472255813946
C           16.23347641592913        4.87106125413183       22.51778728779267
H           16.16599252415727        4.99144312729801       23.59278000281057
C           15.19783564158418        5.29583111279805       21.69734707187274
H           14.31582879556511        5.75312065323131       22.12967008286514
C           15.28904510305004        5.12788553758467       20.32117214971301
H           14.47800250089951        5.45187764429807       19.67963552488126
C           16.41252034469779        4.54078054886448       19.76161802154013
H           16.47050213486872        4.40135123832843       18.68761488178817
C           25.77280085209582        8.20382360234222       24.30990524302276
C           26.75707864065189        7.42082173334921       24.92392472378792
H           26.97361289498004        6.43333160728915       24.52764664219057
C           27.46291280160647        7.89644830946914       26.01635112026698
H           28.23094162397052        7.28111579226385       26.47172657532912
C           27.18687762547839        9.16105616920111       26.52075646874012
H           27.73620550772904        9.53651596980687       27.37583720399247
C           26.20730755803432        9.94332205127313       25.92547970973351
H           25.99033699100337       10.93091182812928       26.31543047506378
C           25.50291907845466        9.47254277181140       24.82673601787587
H           24.74623298922458       10.10073275609088       24.37201271468428
C           26.03074183633349        7.85448823438013       21.46569827560003
C           26.49173765024709        9.15405883233134       21.22980707783442
H           26.22956469735916        9.95359900745985       21.91416517267985
C           27.28953045957902        9.42242671579201       20.12920663368407
H           27.64099158828452       10.43273373246538       19.95575296957291
C           27.64156141858756        8.40287050784210       19.25360621624990
H           28.26635590074453        8.61800289337444       18.39495480658361
C           27.19861953386879        7.10783545218159       19.48367919040580
H           27.47539281291222        6.30581698403051       18.80927923071508
C           26.39977914709439        6.83607480847768       20.58328607943490
H           26.06173900724757        5.82163487800360       20.76611066851628
C           23.58242534320868        4.40454843486564       17.17508347762763
C           24.67243691884530        3.60378660476326       17.52619127048758
H           24.82422982322251        3.33178428735557       18.56510982333043
C           25.56465913459931        3.16077906076682       16.56268716667430
H           26.40481347736982        2.54074276359922       16.85392904026914
C           25.37944257206088        3.51468076552671       15.23366452938017
H           26.07540544125958        3.17006867103046       14.47814075668438
C           24.30450545571753        4.31777589481833       14.87292931361252
H           24.16265064631389        4.60192162057458       13.83683801120881
C           23.41130430472230        4.76400248116002       15.83387542561654
H           22.58124913278001        5.39977780597411       15.54558794217967
C           22.27712863167449        6.73405803462525       18.25109400424504
C           21.28790200753461        7.37458463841339       17.50213885833938
H           20.52184031515693        6.79788233291190       16.99762105895977
C           21.28141523937338        8.75759728068271       17.39177868078148
H           20.51002351627853        9.24264371807547       16.80511315041517
C           22.25647601530618        9.51800276481771       18.02194932102413
H           22.24802252760541       10.59735258935536       17.92801276772974
C           23.24458933425131        8.89187545663049       18.77125014674020
H           24.01316787913369        9.47811440995600       19.26252621323087
C           23.25047717101144        7.51202812238128       18.88825119990044
H           24.02426725741488        7.02134784292231       19.47075914237269
C           24.44847577189099       -1.35010314930186       18.67974618858327
C           25.62834850050226       -0.88484968200043       19.26625223319084
H           25.59003550237606       -0.06522695292106       19.97551751147832
C           26.85000256111885       -1.45377615323750       18.94130599436184
H           27.75513469260008       -1.08460784941821       19.40918124773266
C           26.90891751739730       -2.48732760156245       18.01712363062135
H           27.86350233173410       -2.93025069024467       17.75905952361985
C           25.74384380363545       -2.94892962194526       17.41724555051903
H           25.78834941916714       -3.75049420121240       16.68932167571620
C           24.51977132781884       -2.38758043020860       17.74383455630365
H           23.61507873356000       -2.74928210443566       17.26732835758809
C           21.98263333106199       -0.29073497279367       17.62152057788653
C           22.28659016753960        0.91873898536074       16.98635853621321
H           23.01377958937061        1.58658948079428       17.43777859599146
C           21.68311652689572        1.26215506004919       15.78813648706037
H           21.93837300176422        2.19881206459378       15.30508829313521
C           20.75681493131024        0.40376039607368       15.20935023106897
H           20.28250946532679        0.66849930219816       14.27188474728696
C           20.44209728558858       -0.79511950775582       15.83362323731572
H           19.72134982711883       -1.46816795235091       15.38416634254193
C           21.04812017386520       -1.14425385182032       17.03192557653495
H           20.79249871026409       -2.08669329763269       17.50136004584317
C           18.73975596422240        2.23018805551802       25.57288200339451
C           17.77110144681800        1.87472827621486       26.20999623022289
C           20.52956035445590       -1.75684603242290       20.35968383073292
H           19.87935478485590       -2.53699846617405       19.95607926466169
H           20.19691708270605       -0.81783887840266       19.90710901427403
C           21.99038152850867       -2.05348127797142       19.96793921232239
H           22.02126803303457       -2.92390173272955       19.30756953362463
H           22.57291934506548       -2.32307471056963       20.85413765085429
C           19.59816772054760        4.66374193475061       18.73063424835678
H           18.79920055353602        4.99225017628497       18.06098798124122
H           19.85991948202625        5.53197647830823       19.34301666028984
C           20.81215172474166        4.21375810313454       17.89524972487008
H           20.64099404322410        4.46133771865753       16.84445180921434
H           20.92200412793920        3.12589092307601       17.93847899135165
C           23.46136485518294        8.51770265354329       22.52201236728336
H           23.77122689429269        9.54525184363552       22.31434208565940
H           23.01620981294040        8.14001823652058       21.59655351016656
P           20.28063371061367       -1.58584225352781       22.19413873358653
P           18.96875864559306        3.35859754130044       19.89470412957003
P           24.94981727990706        7.45976191164809       22.87185691161211
P           22.42579776548112        4.93709185501777       18.47079282337714
P           22.86315607196961       -0.61511800760955       19.17613375275508
C           20.10788618437288        8.20387484343654       21.86708858458294
C           19.12365460692541        7.42092153188543       21.25292477265319
H           18.90708232873196        6.43341233980547       21.64913179297079
C           18.41792402420370        7.89660680148203       20.16044813137401
H           17.64995522130453        7.28129068946167       19.70494798028964
C           18.69399822143155        9.16124089574360       19.65613272099135
H           18.14476467878476        9.53673487975004       18.80100310961627
C           19.67349291223662        9.94348399298765       20.25156112273958
H           19.89049077647499       10.93109662086944       19.86167681114152
C           20.37777962655900        9.47264687951277       21.35035367491567
H           21.13438559185813       10.10084592646036       21.80519724375339
C           19.84976771696816        7.85474224158953       24.71127999248002
C           19.38877004633184        9.15435752417456       24.94699891732749
H           19.65096485549020        9.95381609103008       24.26255361827337
C           18.59096731157963        9.42288671649785       26.04756135703023
H           18.23952390504134       10.43322368925545       26.22089107775128
C           18.23890933457291        8.40345344573643       26.92329147489716
H           17.61410646385304        8.61870719123261       27.78190911100871
C           18.68183365860849        7.10838176022490       26.69338749895894
H           18.40503161008785        6.30645801489455       27.36788802929957
C           19.48068194647663        6.83645644610205       25.59382123729414
H           19.81866580067026        5.82197497821650       25.41110483413976
C           22.41914611962960        8.51768245102105       23.65507657975675
H           22.10934886755439        9.54524664971111       23.86280601992465
H           22.86430641704863        8.13992461594425       24.58049869378836
P           20.93071405985441        7.45970467545886       23.30520329218980
C           29.24923833958639        1.46311477171985       19.22460338405005
C           29.09979916520912        0.95413149470058       17.92928980411515
H           28.10883217589814        0.88861567239892       17.49212043642101
C           30.21037015485092        0.54081357207963       17.21207840088739
H           30.08757134679308        0.14695297726587       16.20950974252968
C           31.47810070741954        0.63127966754885       17.77286266625596
H           32.34472355752182        0.30722470043538       17.20902689248916
C           31.63442381798519        1.14173794027257       19.05541572061341
H           32.62388595080009        1.21749262352582       19.49176985648191
C           30.52985842427157        1.55738447755756       19.78004461436516
H           30.64994288030389        1.96251049092395       20.77910195076624
Au          24.44879747422907        0.35902919924794       23.18471695976913
Au          25.27859198376228        2.81168061570829       24.61877865575816
Au          21.45905001154729        5.12356451860080       23.17427153382256
Au          22.83318487257160        4.13405368833199       25.53532809151071
Au          22.82159898975377        1.19714819824478       25.44879601454232
Au          25.47771421393180        2.74426183047542       21.63706883551954
C           25.14782511279783       -3.19520615796838       23.27007874846235
C           24.99390197926118       -4.38058769488953       23.99178290834452
H           25.12938573981795       -4.39061199461954       25.06670948024398
C           24.67284568941047       -5.56024235892086       23.33588599687069
H           24.55949615859019       -6.47443059130789       23.90678157002066
C           24.50235679274411       -5.57565467358944       21.95859427534439
H           24.25600106800696       -6.50146972504314       21.45255183057965
C           24.65120101795572       -4.40209060545738       21.23055805864624
H           24.52490798569078       -4.40567631999507       20.15362475453036
C           24.96699948107526       -3.22205534135749       21.88293590500051
H           25.09060023665696       -2.30532752917891       21.31510643019029
C           27.40572620622770       -1.50926946235561       23.80847696412208
C           28.23856960002205       -2.53245088970759       24.27486570241395
H           27.80772198392244       -3.40835093210464       24.74763133263744
C           29.61265263589272       -2.43592667330098       24.12443427203944
H           30.24884279937936       -3.23401479198641       24.48867389155501
C           30.17323416215159       -1.32621828198412       23.50390035970590
H           31.24806976540964       -1.25744613373787       23.38563869091583
C           29.35515675670166       -0.31091281231530       23.02939294159789
H           29.78422698047816        0.55373638186514       22.53665879900054
C           27.98039595664250       -0.40187640394567       23.17970268318791
H           27.34445149115871        0.38911880873400       22.79716746300936
C           27.52490047587977        2.00372215378356       27.32512764849609
C           27.69818408434276        2.06556734483096       28.70897419016601
H           27.46077835243380        2.97240344171433       29.25225705784407
C           28.18467312302480        0.96613176980700       29.40170265655826
H           28.31806719434965        1.02834636046962       30.47539085147255
C           28.50401068303175       -0.20445126786993       28.72835120562186
H           28.88695798925335       -1.05804430827457       29.27482157387028
C           28.33428104896743       -0.27797383696765       27.35152150433524
H           28.58670656500995       -1.18679434403769       26.81659206334910
C           27.84385880751706        0.81549513791547       26.65738358474911
H           27.71461966556442        0.75995582407951       25.58066937417731
C           28.41327992338831        4.11851382235967       25.59796692095492
C           28.52008209999270        4.28593888424461       24.21503759259270
H           27.71479224477610        3.94778581439588       23.57172425897284
C           29.64673876294294        4.87046581305086       23.65830874903488
H           29.71410947638176        4.99060749597453       22.58328316204921
C           30.68245428313442        5.29538435646715       24.47856858867737
H           31.56442222666488        5.75257048679301       24.04606684755804
C           30.59137094700166        5.12771584331796       25.85478825988674
H           31.40246972026013        5.45183606080425       26.49618478000327
C           29.46795149056141        4.54072661334804       26.41456739272171
H           29.41006350020501        4.40150778103092       27.48860439176116
C           22.29826190998291        4.40460120094053       29.00219074740787
C           21.20818077426235        3.60385093676314       28.65127186940045
H           21.05619432759693        3.33182921519750       27.61237794243641
C           20.31611682308376        3.16088729079739       29.61492732349277
H           19.47590715369258        2.54086281389545       29.32382974706963
C           20.50156059616527        3.51482444118575       30.94390577376397
H           19.80571310295900        3.17024615638190       31.69954686727221
C           21.57657192914132        4.31791107189394       31.30444710128314
H           21.71860422482435        4.60208268049269       32.34050438853946
C           22.46962135747544        4.76409657720335       30.34334844680867
H           23.29974317236476        5.39985992320339       30.63147552073650
C           23.60351444508616        6.73402502402554       27.92580064313686
C           24.59282558645371        7.37455737357664       28.67464751888592
H           25.35892057882505        6.79785827892634       29.17911706416420
C           24.59931924408257        8.75757133535715       28.78502682394579
H           25.37077395297391        9.24261726347410       29.37161168409583
C           23.62419968632437        9.51798518209758       28.15495934934737
H           23.63267958305427       10.59733767944231       28.24887975664069
C           22.63601032366011        8.89186040005889       27.40575891221207
H           21.86739628751497        9.47810785956451       26.91454860490438
C           22.63010455830202        7.51201089117010       27.28875349691270
H           21.85624354103793        7.02134360586524       26.70633283116468
C           21.43205025308947       -1.35029179257382       27.49752799288085
C           20.25206846171546       -0.88515301160646       26.91115473242267
H           20.29023953753403       -0.06550592623562       26.20189448323033
C           19.03051240182568       -1.45422881605511       27.23628414736971
H           18.12526422745603       -1.08517733971589       26.76854139049449
C           18.97182501700954       -2.48777990874626       28.16049453997357
H           18.01732384635475       -2.93081104020109       28.41869747901355
C           20.13702373474523       -2.94925121908048       28.76022560163756
H           20.09270649226667       -3.75081814216380       29.48816209389626
C           21.36098702408336       -2.38776859723361       28.43346257862742
H           22.26578089603146       -2.74937216867487       28.90985037904895
C           23.89792650067555       -0.29073749275225       28.55545759460457
C           23.59403329706958        0.91876725944391       29.19058398270058
H           22.86677306713425        1.58658334487616       28.73922298692239
C           24.19766962914286        1.26225821476278       30.38869921389084
H           23.94244820061822        2.19892720453734       30.87174221628472
C           25.12407321207238        0.40390997714612       30.96739176057923
H           25.59849430622671        0.66869778812629       31.90478258722597
C           25.43873433927893       -0.79499360033299       30.34313253507421
H           26.15956344601007       -1.46800431549290       30.79251113860798
C           24.83253540520698       -1.14420955379731       29.14494903963077
H           25.08812104863032       -2.08665420308668       28.67550421664667
C           27.13964908941303        2.23155827839361       20.60208428281980
C           28.11055970302344        1.87486749112319       19.96924860365351
C           25.35073389118373       -1.75688483742372       25.81717355358532
H           26.00097938115502       -2.53700404622506       26.22077143206871
H           25.68337036896910       -0.81785191739324       26.26969726708166
C           23.88995033632801       -2.05353810692538       26.20901794474225
H           23.85909773008680       -2.92397502141633       26.86936651552092
H           23.30735361510601       -2.32308548356503       25.32284356539159
C           26.28238823611388        4.66366418248106       27.44602145828793
H           27.08142086054214        4.99218010122722       28.11558825094575
H           26.02059146103096        5.53189083453818       26.83364858101956
C           25.06847470487761        4.21374960850460       28.28156848419178
H           25.23974891928598        4.46137625976279       29.33233463368589
H           24.95859971917213        3.12588255031989       28.23842300568349
P           25.59948975279220       -1.58587537703525       23.98269482819532
P           26.91170741278933        3.35850879848474       26.28190249902099
P           23.45470521692115        4.93703382702952       27.70628755521286
P           23.01726107379691       -0.61521057963003       27.00096322316783
