215
 energy: -314.039684950224 gnorm: 0.000537360262 xtb: 6.5.1 (579679a)
Au           2.27196243964006        1.02265442322542       -1.34869811911111
Au           1.59380058120523       -1.86698552076506       -1.44921491311566
Au           2.53037763566465       -0.63740628960618        1.10409957739396
Au           1.36159006988342        2.11101288028458        1.31181069375040
Au          -0.27763179764427        2.57019389473838       -1.12542153929233
Au          -0.16226678076525        0.13259577583921       -2.83038144428205
Au           0.00030368912534       -0.00036000072707        0.00043262501573
Cl           4.53975526237197        1.11072491753969       -2.14231161672360
P            3.21606614454542       -3.11553253232777       -2.71097414556157
C            3.92361197313776       -4.55123003776234       -1.85568742250246
C            3.57563898096969       -4.79603894916268       -0.52487903577158
C            4.12300490548562       -5.86716635762455        0.16442819651640
C            5.02480013742256       -6.71236361267013       -0.46738806728015
C            5.37788438691027       -6.48093426960313       -1.79013249603586
C            4.83559247029001       -5.40907287675822       -2.48064956232536
C            2.62474230138660       -3.76456786925427       -4.33011236276935
C            4.68182070410409       -2.11666735846961       -3.18469378837874
P            4.79805111455347       -0.86613860762571        1.84445369507537
C            4.96978006996262       -0.41758050642243        3.59368716465397
C            4.25068791519579       -1.16875057469576        4.53093789015246
C            4.30685581917432       -0.85782725477704        5.87995464592988
C            5.06472006016900        0.22361155099078        6.31333572062145
C            5.76385831678527        0.98935897354189        5.39110647908268
C            5.71793568116229        0.67475149275869        4.03984347300182
C            5.50581851638659       -2.56358601422649        1.74305066223277
C            6.00929805985443        0.15098599352738        0.92041446026398
P            2.64399906902297        3.83265372216921        2.40992196736666
C            4.21643645743282        4.24556208248567        1.61314474156334
C            4.58640575961322        3.55778942785717        0.45534622050499
C            5.78533254466912        3.82844083265835       -0.18399543701878
C            6.63462408845684        4.79931070402500        0.32780901564980
C            6.27946931840058        5.49376825844741        1.47759574798228
C            5.08228529542170        5.22254030478916        2.12016219915091
C            1.77988190826967        5.44733492639028        2.61311494057665
C            3.11655837322440        3.42077251801980        4.14345184059643
P           -0.20018785251482        4.65326088847046       -2.32941770349778
C            1.26975314047423        4.66782345361021       -3.38946114115581
C            2.48009250195957        4.27496144967247       -2.80520761740705
C            3.64044646730528        4.19923129742085       -3.55639361934446
C            3.61123525141292        4.51267404247150       -4.90911627021995
C            2.42015743113542        4.90941531037449       -5.50049418167830
C            1.25452925462281        4.98590006029922       -4.75078549433581
C           -0.03285351307785        6.18373127358471       -1.31665808020303
C           -1.62660187060224        5.04176833905152       -3.42407639160237
P            0.02353143155892        0.29976242075203       -5.22461733097147
C            1.73321955952823        0.05066805851972       -5.76769446589459
C            2.71172869732433        0.85589377863350       -5.17316733656435
C            4.04658165462741        0.71741781654698       -5.51374287821402
C            4.42718975114990       -0.23504500814055       -6.45108722747536
C            3.46779836177207       -1.04733732007919       -7.03971437556770
C            2.12879789633771       -0.91252118692697       -6.70040140467485
C           -1.01841643775638       -0.81684394184821       -6.24865243537305
C           -0.38290025577689        1.96443206719480       -5.90056689897883
Au          -1.36279714240293       -2.11099117167632       -1.31160451324552
Au           0.27722125639497       -2.57057418080581        1.12542977024374
Au           0.16219147068467       -0.13200232196521        2.83056042152308
Au          -1.59416478942928        1.86774529769365        1.44852984947864
Au          -2.52983713774691        0.63746092466424       -1.10377522895666
Au          -2.27221506176432       -1.02294828719987        1.34828513991009
P           -2.64394199479511       -3.83270330514909       -2.40994878253256
P            0.20021550979397       -4.65326458617693        2.32943666392809
P           -0.02351372363271       -0.29978121615370        5.22460249088211
P           -3.21600819081091        3.11550941922487        2.71098700380858
P           -4.79801380303845        0.86611551376945       -1.84445355396555
Cl          -4.53970049158051       -1.11078047024693        2.14223524954583
C           -4.21638912327902       -4.24555016780509       -1.61316063116784
C           -1.77985933557208       -5.44739440449058       -2.61313866409044
C           -3.11652679527572       -3.42076317449587       -4.14345811095139
C           -1.26972929262571       -4.66777616130201        3.38947784200522
C            0.03288636806057       -6.18372028680703        1.31664939783618
C            1.62662896556232       -5.04177067519532        3.42409596600416
C           -1.73320077990640       -0.05065732132987        5.76767526177367
C            1.01841826280502        0.81683398205802        6.24864743023742
C            0.38290776117525       -1.96443393122366        5.90059473401775
C           -3.92359568348785        4.55119919515093        1.85571487903829
C           -2.62476918550004        3.76459141299544        4.33013293952036
C           -4.68179251970921        2.11667903874427        3.18469433824752
C           -4.96980884601404        0.41758261675702       -3.59368675584652
C           -5.50582964048048        2.56354831687065       -1.74307382671915
C           -6.00930330443778       -0.15098214907844       -0.92043855208849
C           -4.58633121373154       -3.55776387144264       -0.45536132262286
C           -5.08226396818219       -5.22250774126214       -2.12018221456847
C           -2.48006323065592       -4.27489289173286        2.80522485652678
C           -1.25452593888707       -4.98589286386119        4.75079666320689
C           -2.71171195620237       -0.85588908216507        5.17316205897964
C           -2.12878021429415        0.91252366585828        6.70039687237211
C           -3.57560990336962        4.79597943941551        0.52490868475416
C           -4.83559216177794        5.40904993140203        2.48065497580501
C           -4.25070573407374        1.16874834955430       -4.53092850461827
C           -5.71795390664927       -0.67475551132959       -4.03983901564122
C           -5.78527061882347       -3.82840708159911        0.18398184103739
C           -6.27944999058784       -5.49372223126835       -1.47761362840769
C           -3.64042991654269       -4.19920184702894        3.55640119504392
C           -2.42016403106723       -4.90943367550717        5.50049610979701
C           -4.04656340154194       -0.71741958644490        5.51374612693622
C           -3.46778149853023        1.04733523958781        7.03971699206810
C           -4.12297641716516        5.86710043219084       -0.16441997076640
C           -5.37787838964824        6.48090379299445        1.79011708340721
C           -4.30685982679075        0.85782091348288       -5.87994333023840
C           -5.76386341822705       -0.98936797244566       -5.39110081842584
C           -6.63458519270297       -4.79926389463165       -0.32782247306928
C           -3.61123520011018       -4.51267943116632        4.90911623304939
C           -4.42717301382553        0.23504528677766        6.45108744360528
C           -5.02477919281121        6.71231241468974        0.46737369531159
C           -5.06472326946928       -0.22361801096786       -6.31332717941065
H            5.45170534028801       -7.55014620857639        0.07081820632191
H            3.84508168015988       -6.04238390429839        1.19778273354409
H            5.12386444134584       -5.23733242108241       -3.51159123956272
H            2.26905894786029       -2.93706074508275       -4.94486976062447
H            3.41068492874549       -4.28335106147988       -4.87890954953764
H            1.79571571713557       -4.45513100842882       -4.17808274518201
H            5.11185261997594        0.46507823979119        7.36841393980427
H            6.35852963793186        1.83205074234277        5.72367215421451
H            6.08172463397446       -7.13784599185083       -2.28735831419297
H            2.86726898348943       -4.13845875573228       -0.02859811752900
H            5.16402224722364       -1.71897538156261       -2.29193230014115
H            5.41279636860548       -2.69983768943610       -3.74529033899472
H            4.37447703816827       -1.26589221679795       -3.79283125589102
H            3.64859740943183       -2.00854408084722        4.19632915452541
H            3.76663128432469       -1.46619338999886        6.59632845622274
H            7.57288517695469        5.01687243468946       -0.16836667604456
H           -1.53360440552777       -5.85837245783785       -1.63431482479649
H           -2.39048459257190       -6.17579353564470       -3.14693576577421
H           -0.85005179560540       -5.30719672576582       -3.16425424581979
H            6.27934014337852        1.27704210626122        3.33564794182963
H            3.75969621090850       -1.79116044226445       -7.77181099090161
H            3.92168743163128        2.80290535720670        0.05179516340794
H            0.33668314146711        5.30712435504989       -5.22870138524790
H            6.93998560884421        6.25369244434674        1.87839138312459
H           -2.22326955766840       -3.26512887740518       -4.74762428603580
H           -3.71003204395013       -4.21034417337879       -4.60462290196476
H           -3.70070673927182       -2.50045334434350       -4.15747563397307
H            3.70073593225637        2.50046243021230        4.15747956681361
H            3.71005022734731        4.21035613321033        4.60463101211337
H            2.22328744579287        3.26513644271309        4.74759843822589
H            4.56391900814742        3.88273712953682       -3.08667117347477
H            2.39345542475653        5.16243820880513       -6.55389870983171
H            0.85885344838156        6.11682910841855       -0.69383109817640
H            0.05130115976211        7.07268497942065       -1.94238298101912
H           -0.89663222962636        6.29852468107567       -0.66202592013640
H            5.49318293201481       -2.90497131218542        0.70787225954244
H            6.53320173287243       -2.59338638317828        2.10676445254999
H            4.90983872553357       -3.25919862596531        2.33276111594128
H           -2.53969524073158        5.07899374504350       -2.83030793661596
H           -1.51362470984360        5.99943176873361       -3.93220095418424
H           -1.75110888487327        4.26122847738815       -4.17391043874127
H            0.89665584813012       -6.29854982624562        0.66200921493081
H           -0.05127902359069       -7.07265977508173        1.94239127280317
H           -0.85882300901984       -6.11682232435225        0.69382612977536
H            1.75112877107119       -4.26123496859315        4.17393485661070
H            1.51363195340270       -5.99943514384097        3.93221256329140
H            2.53973775723350       -5.07900043872645        2.83034835379480
H           -2.06910455386869       -0.64938653623779       -6.00924033463156
H           -0.88085012231855       -0.64687743300463       -7.31663845253733
H           -0.78667576498660       -1.85860459151396       -6.02976428251873
H            2.42171783370086        1.59689693957791       -4.43517364356122
H            5.47069365212839       -0.34426778139838       -6.72099704725730
H            5.76647674071240        1.20936580494125        1.01386946893294
H            7.03248758476770       -0.00672977003586        1.26204667051019
H            5.95420821416407       -0.09714746760135       -0.14054485181470
H            6.04791126843521        3.27759308122470       -1.07959128335436
H            1.39318357525951       -1.55049939070184       -7.17580000476587
H            0.85007450813542        5.30713504984432        3.16423078021075
H            2.39048621606844        6.17574785279767        3.14691958971786
H            1.53362155438863        5.85832920303882        1.63429879259081
H            4.81918193696888        5.77205793353315        3.01719030020252
H            2.50764890114737        4.03162749379258       -1.74749801803260
H            4.78738666624944        1.34935866620759       -5.03892491577993
H            4.51655167014368        4.44877648757096       -5.50070045098632
H            0.27194635866593        2.71209003137187       -5.45325461970421
H           -0.25647342557096        2.00156019996830       -6.98286902313433
H           -1.41223451804005        2.22869325788591       -5.66092018928897
H           -4.90985861930077        3.25916595363168       -2.33278572572050
H           -6.53321614598967        2.59335942223154       -2.10678069520354
H           -5.49318825031877        2.90493290516336       -0.70789690284345
H           -3.84504843727491        6.04230562788177       -1.19777510221854
H           -4.56389926813396       -3.88269132544537        3.08668399417309
H           -3.75968150708930        1.79115772786927        7.77181441201589
H           -4.51655509847902       -4.44878137897010        5.50069761910500
H           -3.64860994746255        2.00853562210629       -4.19631321641014
H           -5.12387755988847        5.23733041739352        3.51159671757301
H           -7.57285022487779       -5.01681727148232        0.16835362740579
H           -6.93997935799048       -6.25363678150162       -1.87841035174561
H           -1.39316494521435        1.55048931430394        7.17581145833247
H           -2.39347404907064       -5.16248031963340        6.55389577173738
H           -5.95420040879726        0.09715296054797        0.14051935013999
H           -7.03249730540121        0.00672955303115       -1.26206128820305
H           -5.76648344379122       -1.20936157873660       -1.01389223902302
H           -2.42169916910105       -1.59690964168257        4.43518969678866
H           -4.78736785103365       -1.34936617393011        5.03893557102925
H            0.78668291167557        1.85859784361414        6.02976556244754
H            0.88084423725168        0.64686608747723        7.31663259784114
H            2.06910720276803        0.64937232382736        6.00924230541562
H            1.41224086077759       -2.22868940343512        5.66093990136892
H            0.25648417671522       -2.00156070391808        6.98289784643042
H           -0.27193770233191       -2.71209083650805        5.45328017312249
H           -2.50760359723874       -4.03151138272884        1.74752568407202
H           -6.04784741596798       -3.27756624056077        1.07958256040789
H           -5.11185557428160       -0.46508086954774       -7.36840534902447
H           -1.79573732750440        4.45514910941786        4.17810832493296
H           -3.41071288390489        4.28337155638019        4.87893506661648
H           -2.26909475863347        2.93706273144975        4.94486288613520
H           -4.81917431933599       -5.77202939245529       -3.01721214067123
H           -2.86722988111515        4.13837149219151        0.02866594495649
H           -5.45167907238679        7.55009008216438       -0.07084776996002
H           -3.92158044987433       -2.80288507187776       -0.05182748364027
H           -0.33668926965967       -5.30714287830197        5.22871277502339
H           -6.35852994397732       -1.83206272948635       -5.72366690979391
H           -6.27934153978937       -1.27706105327343       -3.33564275902184
H           -4.37443665514330        1.26591459350068        3.79283784912342
H           -5.41278444444555        2.69984130191484        3.74528236668170
H           -5.16398997869946        1.71897055151224        2.29193746589434
H           -3.76662960904806        1.46618832817673       -6.59631166120104
H           -6.08172404870201        7.13782651794305        2.28732448264470
H           -5.47067883866707        0.34427387788469        6.72098998716169
