385
 energy: -608.312251929201 gnorm: 0.000370211713 xtb: 6.5.1 (579679a)
Au           5.34986978639257       13.53003568561532        6.94632294026577
Au           7.82667121776157       12.32796271189975        6.42993762272122
Au           3.37830784466181       11.85482946758498        8.16374917899323
Au           5.32407416186791       10.79286852963970        6.16324045070839
Au           3.17792481229417       12.67569822563257        5.30834448737092
Au           5.85285117792281       12.99203683586084        4.19891226534000
Au           4.36181850994551       15.36722972753920        5.05409570927501
Au           6.28020285183328       11.58012978877245        8.80091474831018
Au           2.79977827986116       14.64006126188819        7.51610509509915
Au           4.69580171040126       14.03719943764672        9.64278002601160
Au           7.48116340220935       14.35398335475986        8.59103414482619
Au           7.28809883732611       15.17635192881538        5.70289663102412
Au           5.38160460941365       16.24015088750970        7.72465279348358
Cl           6.95275306051798       10.24876312799420       10.79523355515916
Cl           0.67512752341893       15.89541451298900        7.74307383440145
Cl           6.77507123970355       12.40666750600886        1.95929166549689
C            2.15215146637767       10.32441021992464        9.06382056276445
N            1.08662622572081        9.72394505175389        8.50894531251370
N            2.42548823480335        9.66874805682086       10.20001668183084
C            0.65986492668132        8.66896925880025        9.29214536408867
C           -0.36961747851788        7.74575001623695        9.14740861444255
H           -1.05611302185414        7.78467744265936        8.31133140858168
C           -0.47541530198552        6.77224283887789       10.12592007949855
H           -1.26309490690269        6.03157100633729       10.05428159469099
C            0.41340418762836        6.71501534290095       11.20608947428694
H            0.29484433808862        5.92808915598275       11.94145409767617
C            1.43691925782884        7.63414190630841       11.35725410459400
H            2.12421574132860        7.58428208988813       12.19122096932402
C            1.54212901238338        8.62177723610878       10.38364368960715
C            0.52368451640397       10.08596813058223        7.21668729426118
H            0.24408589240907        9.16542018056096        6.69571087712272
H            1.32137750528313       10.57869355626869        6.65327555865818
C           -0.65956000151016       11.01908524849442        7.32716010992726
C           -0.48020867936586       12.32035688941894        7.78373684410032
H            0.50358819779138       12.65005434537000        8.09719625700992
C           -1.55154404224453       13.20008559549811        7.83811315913954
H           -1.39593973814817       14.20977538209433        8.19883727564670
C           -2.81147013808735       12.78139180695328        7.43282958139340
H           -3.64882711601177       13.46810030859620        7.46996888958951
C           -2.99665844932177       11.48308612023168        6.97881795758201
H           -3.97827571802273       11.15228304541643        6.65985352903148
C           -1.92476832945003       10.60259123655034        6.92645587057498
H           -2.07174232089227        9.59100509498361        6.56271212656806
C            3.59189569724693        9.94053421483862       11.02242456680747
H            3.98747376127857       10.90754667639257       10.69731862439902
H            4.35273408019485        9.18438334991403       10.80357987893048
C            3.31724733687480        9.97953216624744       12.50280664813394
C            2.09878220228261       10.40629142217433       13.02087640862558
H            1.29403265870084       10.68770439536619       12.35317066005530
C            1.90402359228242       10.45784676695578       14.39345514526824
H            0.94958949564969       10.78780101891047       14.78758649063798
C            2.92669549177590       10.09271096385341       15.25769363272041
H            2.77194243386158       10.13348850919727       16.32945655428707
C            4.14761658949632        9.67472562232817       14.74561469351687
H            4.94959833320936        9.38757623231734       15.41575076297404
C            4.34313767832094        9.61563387200097       13.37358180536096
H            5.29249565723260        9.27811983077520       12.97242071009746
C            1.32409464222589       12.07154972870324        4.38656606390684
N            1.01537625483639       10.85278966104070        3.91383452743774
N            0.21223665877694       12.81563443591525        4.31303579092089
C           -0.30959579403843       10.80348482243060        3.52489438276665
C           -1.09909834355171        9.78825151538778        2.99677790556357
H           -0.69507741203321        8.80828380807945        2.77719562885755
C           -2.42961600060870       10.09138208913826        2.76332870439946
H           -3.08245589830760        9.33062511908397        2.35195268595986
C           -2.95769780812597       11.35626198566924        3.04842914121629
H           -4.00746781592909       11.54197478873532        2.85460150142844
C           -2.17538078476543       12.37160648063461        3.57039282029663
H           -2.58643049144728       13.34753406982834        3.79216946879421
C           -0.83592455525029       12.07613722260163        3.79898134957680
C            0.10262063768613       14.15675241218441        4.86087357914557
H           -0.43402742860821       14.09883068567549        5.81341208642720
H            1.12102078370029       14.49223447202682        5.07810948288728
C           -0.56878158937255       15.14917890281134        3.94896389606422
C           -0.44775400581864       15.08025406853213        2.56497691466538
H            0.10529470168469       14.26814872807188        2.10947312340619
C           -1.04433280791244       16.04291275993523        1.76387177682243
H           -0.94612698616769       15.97995951631980        0.68610662339439
C           -1.76038938580130       17.08325058292684        2.33926764688537
H           -2.22516058213385       17.83441913006619        1.71154029402987
C           -1.88052692979506       17.15865553357017        3.72040042355340
H           -2.44072010874960       17.96765148230888        4.17487933877465
C           -1.28833860140341       16.19532553305649        4.52410926657981
H           -1.38883223683009       16.24810908184905        5.60270910384254
C            1.93282897108730        9.72239902486944        3.90699862195146
H            2.68588785425867        9.92428201272479        4.67435394298779
H            1.37321655960039        8.82652855735135        4.19221107080566
C            2.61665754573200        9.52492120632616        2.57412449396256
C            2.36761112048965        8.38553518379020        1.81617522494599
H            1.65663394682204        7.64559005470987        2.16857895628761
C            3.03615227986456        8.18803439986760        0.61573437583131
H            2.84015846270725        7.29503735298829        0.03359643136358
C            3.95244084582684        9.12761565616734        0.16453255225076
H            4.47400104596670        8.97083782499968       -0.77221409733597
C            4.20188526790857       10.26794580652694        0.91585299354826
H            4.91218624879561       11.01028925358123        0.57211318318756
C            3.53719183338891       10.46225926376479        2.11788766676775
H            3.73909847734094       11.34939086162729        2.70707234091965
C            3.35790437460851       16.68113943905947        3.68857864033532
N            3.52599889298502       16.66371408244929        2.35719246885520
N            2.35619005264802       17.53465510347971        3.94428736754181
C            1.86622109742190       18.07913235480939        2.77210868308228
C            0.85456209037882       18.99467960789740        2.50264696622017
H            0.26583828643743       19.44131758755349        3.29258346813093
C            0.63178223566282       19.30564862379813        1.17238598418766
H           -0.14761066833843       20.01414637958012        0.91790874332513
C            1.38326559738701       18.72633566652801        0.14276971775947
H            1.16601269040859       18.99901771479004       -0.88317808073573
C            2.39296478417946       17.81650142323205        0.40394644489405
H            2.97190413083069       17.36628144555088       -0.39209351457970
C            2.62260841404353       17.50570867585899        1.73948771439418
C            1.81126732011568       17.80523536548176        5.26516086206315
H            0.80584096164301       17.37761631089199        5.32471352053051
H            2.44406511961652       17.28274554330073        5.98700961803405
C            1.78321515777998       19.28136921568639        5.56867285421320
C            2.95429964992387       20.02941135442273        5.50408604175624
H            3.88057576340403       19.54715811102152        5.21514311300205
C            2.93923658228407       21.38231243488196        5.80552588080645
H            3.85768262289155       21.95611831303491        5.74950117305451
C            1.75350500407558       21.99663221395963        6.18531731865177
H            1.74339950269240       23.05247356628124        6.42932831496956
C            0.58170922232807       21.25631759641392        6.24878262660590
H           -0.34729796228962       21.73220330070229        6.54053208165001
C            0.59300500547675       19.90346222348250        5.93616244011000
H           -0.32595945678687       19.32934639694892        5.97984988626417
C            4.45416346021664       15.81045439957036        1.63751702631663
H            5.14676312171334       15.38892177257596        2.37130178511462
H            5.02185420518535       16.42406291410914        0.93276174130415
C            3.71564696010433       14.70539728667471        0.91967222180492
C            2.76838133433886       13.94405895805657        1.59662844394300
H            2.56136176195037       14.14896890835474        2.64117469503264
C            2.08858393797055       12.92928302184975        0.93979662959472
H            1.35746371711428       12.33438849435050        1.47491873273582
C            2.35436817508569       12.66571782701072       -0.39725383337454
H            1.82500441522843       11.86972602119003       -0.90765019622893
C            3.30375214445755       13.41766812813682       -1.07323084926337
H            3.51874291949782       13.21328192365531       -2.11557147276826
C            3.98017773689574       14.43753408990913       -0.41825805516483
H            4.72048338151516       15.02532932475740       -0.94958341507085
C            5.14309034719444        8.85409386125882        5.23529947275057
N            5.75320022770164        8.46826146726210        4.10708217281719
N            4.31206366987553        7.86106678198992        5.59321316298017
C            4.38578276992542        6.81628033224855        4.69200626186886
C            3.73070722956767        5.59265825510840        4.61121599227222
H            3.01978380598778        5.27616558815040        5.36368468521119
C            4.03312107109294        4.79527113383721        3.52056661635769
H            3.54669887724130        3.83255412947671        3.41675401269500
C            4.95054156340829        5.20010002118065        2.54347921543508
H            5.14864878779460        4.54207288383457        1.70572763217035
C            5.60816235551446        6.41539675240630        2.62086606737473
H            6.31642519216032        6.72727274996682        1.86464601681380
C            5.31370683342209        7.21743651562239        3.71786254960240
C            3.39380905844783        7.92966280800202        6.72056617020829
H            2.44253256576425        7.48440217839248        6.41393807115027
H            3.23269441854622        8.99112055225941        6.92988960835910
C            3.92765474435115        7.25038881120014        7.96016966616002
C            3.31081460364502        6.10807366797757        8.45951492987442
H            2.45809465405812        5.68257173808322        7.94086022310251
C            3.77615703620154        5.51946435471527        9.62743104207011
H            3.28637820071634        4.63269445130943       10.01276775008114
C            4.86025895215147        6.06551575706361       10.30017151563438
H            5.22036728121474        5.60576139742635       11.21287919624580
C            5.48193389636092        7.20291633217304        9.80338665467688
H            6.33190270187014        7.63553465261037       10.31739374562439
C            5.01388400112113        7.79293604056270        8.63826095512136
H            5.49603452921776        8.68515892816618        8.25554178711317
C            6.63229130342746        9.32192861089550        3.32822474931763
H            6.83241071812196       10.20835435031410        3.93712657410074
H            6.09301876145313        9.65229642991171        2.43448047732755
C            7.93500993169570        8.67410964271897        2.93912451877987
C            8.56191643722208        9.09603468281204        1.76787294430331
H            8.08515289445812        9.84385837266078        1.14366040812800
C            9.78401057024305        8.55389721775703        1.39756361220607
H           10.26370351466028        8.88388620034646        0.48335819422643
C           10.38708642094182        7.58804448356600        2.19215646845464
H           11.34011973082177        7.16238742607266        1.90085538074711
C            9.76639842350700        7.16805567546769        3.36017267115532
H           10.23367214014912        6.41578513679383        3.98542464822958
C            8.54554868523409        7.71024610147050        3.73435396006367
H            8.06237873978106        7.37337192828597        4.64314851098737
C            9.62322102390902       11.30052123230675        5.88491905476285
N           10.17344520565275       11.24223786240027        4.66462486928049
N           10.29720245181141       10.43605276738183        6.65884963253486
C           11.21352992232281       10.33308951121423        4.63846084573171
C           12.08265607745711        9.92043561257817        3.63452602464678
H           12.02885749083510       10.32829793525465        2.63383934977412
C           13.01721279444660        8.95845641637640        3.97687255152935
H           13.71461981106926        8.60639692174028        3.22599448015959
C           13.08479451822715        8.42232692554078        5.26871933988242
H           13.83114349116522        7.66700243778983        5.48462105451796
C           12.22460432856300        8.83200592310409        6.27281638598338
H           12.27626726743548        8.41471627589316        7.27019421746724
C           11.28773875025904        9.80197490098787        5.93438329481846
C            9.70800082930458       11.99592374904271        3.51606474303381
H            8.92618491766356       12.67164240072069        3.87400048118248
H            9.25017178401295       11.30624011305839        2.79995739993663
C           10.81881173037878       12.77810694996503        2.86384572400629
C           10.86087191288755       12.88660091056857        1.47603392654370
H           10.10441388205340       12.39547705593039        0.87395759888983
C           11.87458895309747       13.61125182919135        0.86486212331364
H           11.90421923431122       13.68792527558247       -0.21578813736045
C           12.85179790938920       14.22759570632151        1.63410869968449
H           13.64678685858780       14.78728059264822        1.15558047771555
C           12.80810941600402       14.12806699196034        3.01822445635876
H           13.56562411798719       14.61274644209360        3.62380556737207
C           11.79377623410292       13.40889346773446        3.63139577921158
H           11.76421905547006       13.32846078287736        4.71190529194015
C            9.96602753579331       10.10864305179860        8.03365427118254
H            9.26832024327435       10.87043010935327        8.39275943573553
H           10.87634062722544       10.15569950124515        8.63783374262949
C            9.33249328671594        8.73901151952946        8.11121295079209
C            8.30848914350963        8.39253065077481        7.23527960670057
H            7.96741539776487        9.10874991947494        6.49575100696301
C            7.72786393271345        7.13508586232347        7.30201576831151
H            6.92441363648801        6.87438844804760        6.62251184690833
C            8.16456921243230        6.21624653343743        8.24702225554415
H            7.70753332680116        5.23507804471261        8.29957405612357
C            9.17955361892024        6.56115940076808        9.12716091380513
H            9.52086203577547        5.84978002571689        9.87007495040981
C            9.76500089006412        7.81779481625599        9.05765883172932
H           10.55995435683341        8.08428881651371        9.74535762864292
C            8.90478993521640       14.84799012797638       10.16254292299731
N            9.21983992391881       16.09149768713816       10.56382886834419
N            9.46039278479810       14.00682194714363       11.04386256188657
C           10.14405853249900       14.70048536414883       12.02461762058811
C           10.87798898729971       14.29039691134235       13.13189782064324
H           11.00822640075641       13.24295905421052       13.36982125834848
C           11.43107031570663       15.28784301910146       13.91637797380092
H           12.01185863652932       15.01493853075281       14.78945149072838
C           11.25758981324191       16.64404204215832       13.61515681766241
H           11.70572804643110       17.38710021274888       14.26415250935181
C           10.53063465743983       17.05799564292550       12.51183254067069
H           10.39694980078176       18.10735292891285       12.28212738576296
C            9.98001914356021       16.05922268926496       11.71712444585916
C            9.26290337057890       12.57061515887743       11.03407859652514
H            8.64632239973034       12.29676813057563       11.89551083645504
H            8.69197547062324       12.33592945557606       10.13170415964777
C           10.54357244352069       11.77882247145357       11.04784134770901
C           10.52411402402000       10.49152165682141       11.58001459088607
H            9.60110658948109       10.09489735580511       11.98809670676743
C           11.67652159002937        9.71965811467434       11.57681464332244
H           11.65860534735327        8.72365508826990       12.00365382392377
C           12.85253065723730       10.22593629640730       11.03851255860814
H           13.75327186948600        9.62353228564358       11.03748827473422
C           12.87288186951968       11.50700699511089       10.50558774147461
H           13.78997047143266       11.90699232059055       10.08794885852578
C           11.72213045873420       12.28333282251717       10.50835205528731
H           11.74074649639161       13.28541558711585       10.09489160887653
C            8.72266391298139       17.29898884423675        9.93863834245495
H            8.37247108082682       17.01945247792344        8.93976662937811
H            9.54247493377991       18.01629901998232        9.83500269194857
C            7.57565004602588       17.89704635774877       10.72246950272176
C            7.44876373733547       19.27868486586317       10.82271723061476
H            8.18195796510608       19.92451220980185       10.35124786816866
C            6.38926903513560       19.83293712395361       11.52716191848299
H            6.29875492825240       20.91031244953808       11.60227287150393
C            5.45384175763427       19.01131354779037       12.13910161145283
H            4.63526885290106       19.44589434842125       12.70032119263663
C            5.57043188845258       17.63154122935211       12.03237120072681
H            4.84416363663691       16.98333383941175       12.50981344825599
C            6.62664799510973       17.07685847091318       11.32415749965158
H            6.71898712410458       15.99979870277957       11.24709690766339
C            5.08786158105121       18.34677637816459        8.18393041874519
N            5.82957845648860       19.38811597884141        7.77966163473647
N            4.05389801903073       18.84592343167709        8.87722392362648
C            5.27663945253778       20.57702698626003        8.21265285899569
C            5.67306515216233       21.90049935593678        8.05606514290470
H            6.56318393575096       22.16502733718640        7.50094994679596
C            4.87655353892128       22.86747224996066        8.64363410646079
H            5.14629676957520       23.91209784646142        8.54474644936946
C            3.72896399499595       22.52419668483225        9.36610621944550
H            3.13398800010963       23.31203967517133        9.81262324387420
C            3.33337920395386       21.20830313554844        9.52869249788030
H            2.44614987590681       20.96527063152978       10.09477808941248
C            4.12300541872475       20.22586310497077        8.93697090247898
C            7.06186349412815       19.26830615138026        7.01502885321869
H            7.36492061622684       18.21897645894996        7.07395518188231
H            7.82874096828638       19.88780197666099        7.49027146359084
C            6.85648089771558       19.67045863662548        5.57275610733666
C            7.37699286490300       20.86397857735280        5.08425878777789
H            7.96531004830359       21.50408018268385        5.73263759135181
C            7.15043586634566       21.23802830302840        3.76681850274122
H            7.55586352728201       22.17231446724439        3.39664200375325
C            6.40421739328995       20.42222536773997        2.92909604252545
H            6.21758141755598       20.72052944580863        1.90423895962305
C            5.90003416040664       19.21952008213420        3.40534433048532
H            5.32287887484229       18.57334287890365        2.75481738956835
C            6.12622973340384       18.84616819354217        4.72200617025772
H            5.73399069062348       17.90564795611227        5.09162772077582
C            3.11688268109667       17.94289697667850        9.54862506228862
H            2.85596086775250       17.17001736253935        8.81999083310049
H            3.66517838167082       17.46654121049953       10.36917995814313
C            1.85459831685585       18.57528771086305       10.06651419806593
C            1.67929447415161       18.77909788771899       11.43407947481440
H            2.48111108103089       18.54083086185313       12.12476174944449
C            0.48158731238694       19.29012917850515       11.91545165753162
H            0.35295684306140       19.44362924142389       12.98069442248309
C           -0.54715493523901       19.59793390873609       11.03629503880736
H           -1.48283753166315       19.99260212878479       11.41443991876948
C           -0.37712284786531       19.39359117076839        9.67395226567906
H           -1.18019573604448       19.62506803832518        8.98383190422292
C            0.81661863234700       18.88054282700990        9.19126646269071
H            0.94282012089057       18.70026874564545        8.13148869298332
C            4.01554903898768       14.10844077527873       11.67637349217864
N            4.60415258010957       13.51892906158425       12.72647604812948
N            2.83284124509221       14.57745272392050       12.10366247813209
C            3.80597971275294       13.60840239804577       13.85048133136110
C            3.96723468509560       13.16960312861323       15.16000113065270
H            4.85660130981037       12.64075079938999       15.47627338907152
C            2.93154253152015       13.43828820724248       16.03804147444368
H            3.01323163440504       13.11437963211929       17.06883927976925
C            1.77541063605452       14.11465223573787       15.62977196725127
H            0.99054557404634       14.29607902838696       16.35449779468585
C            1.61120696647236       14.55586282435426       14.32810429955491
H            0.71576626951808       15.07613844418767       14.01371517311007
C            2.65156686361601       14.29299416711076       13.44383692818801
C            5.86435113550166       12.80406346380872       12.66587630723150
H            6.26728622993099       12.95662790120994       11.66042113017606
H            5.66933707342266       11.73364337106922       12.78635826310723
C            6.85151030869673       13.28005793914405       13.69998169278966
C            7.71112189750836       12.36125830682533       14.29761328370696
H            7.64214646250490       11.31072016130483       14.03750098231813
C            8.64459655497405       12.78654931157963       15.23229892031797
H            9.30709663456696       12.06554124513452       15.69686540386107
C            8.72407316161688       14.12898256981279       15.57655487431232
H            9.45072627029620       14.45963400027074       16.30927117274240
C            7.87003721827214       15.04753049695235       14.98163794714649
H            7.92864543889415       16.09712734031286       15.24647755585507
C            6.93777917517272       14.62525392318842       14.04600228233838
H            6.26407842789073       15.34219997930061       13.59137043461972
C            1.82206996472204       15.20675937047961       11.27166872819262
H            2.25004254132628       15.33239739025804       10.27384666797248
H            1.58748767771956       16.19503492574250       11.67915315379893
C            0.58075446986483       14.35148510425776       11.19396980762873
C           -0.67651724842863       14.92605258052616       11.34260371915415
H           -0.76672787597616       15.99361874956059       11.51141458738173
C           -1.81522424224185       14.13523670699944       11.27068746404739
H           -2.79252036052486       14.58873797422047       11.38775721112547
C           -1.70328251134633       12.76967110737439       11.05240948974850
H           -2.59242934313926       12.15261061057898       10.99773735919187
C           -0.44954283619990       12.19582669342141       10.88971732663984
H           -0.35982973521985       11.13288667011404       10.69623251087007
C            0.68927690987504       12.98461140076754       10.95822695767492
H            1.66952839013838       12.53954073812723       10.82801841520766
C            8.89199286767884       16.13268864126465        4.56306511341997
N            9.93255047001952       16.80706170249865        5.08011159682757
N            9.11339391187306       16.03811529002448        3.24550097166720
C           10.30309314089270       16.65030928013314        2.89879511410110
C           10.95656231980612       16.82315820511013        1.68355365307656
H           10.54421223267042       16.44311913864395        0.75832119962573
C           12.16251736274157       17.50183633528695        1.71557462102000
H           12.70602363649536       17.66099665416795        0.79184275381159
C           12.70406120590962       17.98621139361057        2.91237915798225
H           13.65450119229306       18.50592333465734        2.88595062668865
C           12.05710324292334       17.81818865762811        4.12478696376996
H           12.47942350032425       18.19242221152226        5.04848545565372
C           10.84148266312753       17.14412982841926        4.09598610600663
C            8.27201589398067       15.29780620378925        2.32605344596142
H            8.80389353070921       14.39417334088673        2.01268792836251
H            7.38860437172182       14.98254731830075        2.88764140841573
C            7.85419445531019       16.09454264785609        1.11876023072483
C            7.58010877977806       15.41659675712173       -0.06681078806796
H            7.68866517393232       14.33834989311678       -0.10423604824161
C            7.16154548322164       16.11738245612298       -1.18852753534850
H            6.96255732509562       15.58613064492614       -2.11193891198010
C            7.00958831283726       17.49674897789054       -1.13186255279341
H            6.68449414323659       18.04415566200517       -2.00871891316591
C            7.27958448302123       18.17362784034874        0.04920903449008
H            7.16640432453864       19.25082296139409        0.09658841325548
C            7.70033579325414       17.47646811806233        1.17331528422782
H            7.91533995675166       18.00804242048394        2.09355357539635
C           10.13745103630388       17.03012966519467        6.49847166358866
H            9.17330890857994       16.85937857617509        6.98615227584670
H           10.44066001469501       18.06873062341861        6.66033385726551
C           11.17156689027243       16.06699263468764        7.03600231515222
C           10.97177085958058       14.69613370421419        6.90464027728903
H           10.06911152836388       14.32915424603429        6.43002789984487
C           11.92420242448542       13.80069411268132        7.36560913825172
H           11.75721761327523       12.73483420614887        7.26074233220814
C           13.08965774501596       14.27282089738481        7.95590399170363
H           13.84525639563131       13.57565303451993        8.29793426984345
C           13.28723112590530       15.63802252920539        8.10191312121239
H           14.19228462264319       16.00956212820935        8.56793957115079
C           12.33096130741448       16.53444842999715        7.64398270069462
H           12.49098590178183       17.60133084681286        7.75653625084570
