307
 energy: -469.286028502355 gnorm: 0.000630600409 xtb: 6.5.1 (579679a)
Au          -0.00024015955501       11.47624592758022       20.52072813642061
Au           0.94633092887499       12.90113808975381       18.31804420193802
Au           2.88354202419444       11.24044071587217       19.91691659053899
P            2.57473315691667       14.10617889005594       17.04352319487502
P            4.61739099016315       12.46354326185007       18.72636066466325
C            6.12334743819296       12.79342240699513       19.68404881923718
C            6.47218508965989       11.85188573390210       20.66024712741793
H            5.83532513779166       10.98623196249373       20.81437072725040
C            7.62233764619082       12.00664037286179       21.41687775621761
H            7.87855686999094       11.26300460609652       22.16261565147326
C            8.44221710300472       13.10901019777107       21.21459356885183
H            9.34474791820409       13.23008340387400       21.80146599513656
C            8.10433609370908       14.05355317734830       20.25497545313143
H            8.74349291478273       14.91287534556959       20.08972209990409
C            6.95474444594263       13.90254736510325       19.49404866274553
H            6.71006287857176       14.65098882468931       18.74968450632337
C            5.17057430243153       11.56039366408303       17.25023587426217
C            4.24279276128502       10.78383846964349       16.54898800296869
H            3.21915363510466       10.71902553699952       16.90691559026832
C            4.61165957165764       10.10518187539540       15.39974302705976
H            3.87598858822509        9.51447392229239       14.86570270117363
C            5.92022386524327       10.18070667761977       14.94021610489915
H            6.21140893789547        9.64572601344845       14.04429315899333
C            6.85392928636578       10.93876177305647       15.63347281245908
H            7.87674425264854       10.99684354945377       15.28055593139627
C            6.48610727736099       11.62611899956824       16.78000795354419
H            7.22295674746587       12.21490280709540       17.31389396145639
C            4.23438868428709       13.71865214311701       14.77305916081725
H            4.99996507076068       14.30266149489436       15.27055633683309
C            4.47832931912204       13.21503769642498       13.50504347051817
H            5.42584535906761       13.42151557221169       13.02166144192089
C            3.51667535336928       12.45231377302577       12.85558943425822
H            3.71230727253582       12.06267437691647       11.86383410819779
C            2.30495551981999       12.18823059760572       13.48036229234541
H            1.55252093177394       11.58910628686178       12.98057594545768
C            2.05490577654208       12.69004808580335       14.74711858235131
H            1.10848058904631       12.48086433258030       15.23761889692061
C            3.01434128731680       13.46391539754910       15.41019719569017
C            2.23440591272464       15.88066717410756       16.82659585808191
C            2.79126529543102       16.64475094422058       15.79637480213748
H            3.44648010722019       16.18024815873423       15.06900528961760
C            2.50540526453047       17.99760334868783       15.69539260579823
H            2.94505597049112       18.57787866940939       14.89282648667248
C            1.65969967580240       18.60680478953077       16.61257834511170
H            1.43757394359067       19.66380856579301       16.52866688819827
C            1.08953134306349       17.85565508975032       17.63275562151549
H            0.41746257824443       18.31981020380039       18.34515011381860
C            1.37188043295466       16.50338567562320       17.73506955683852
H            0.91150778513163       15.91560386066402       18.52416338125852
C            4.13660433445740       14.12639262258019       18.04516556615733
H            4.95606109593235       14.54535799331173       17.45742879523263
H            3.96490718057386       14.79732641752650       18.89057628457796
Au          -1.70611933267324       11.58256224848665       18.31793938710407
Au          -1.23757472528489       14.09190835610123       19.91839501012359
P           -3.56455778342180       12.39146525508695       17.04338549072348
P           -3.16352173612821       14.98183278241360       18.72616176856087
C           -4.20223509212381       16.12085713141678       19.68405209677447
C           -3.56125824574807       16.89378690258728       20.66020225711624
H           -2.49311992998494       16.77519704802240       20.81422128037245
C           -4.27040424725884       17.81237357464786       21.41690867896488
H           -3.75451278208593       18.40614944203221       22.16259829855190
C           -5.63506686558289       17.97104636149183       21.21475940980303
H           -6.19122301578447       18.69204587014506       21.80169230583195
C           -6.28412010214423       17.20608401295956       20.25520018198649
H           -7.34792535852908       17.32981086318595       20.09004936889519
C           -5.57850479746976       16.28610963797903       19.49419786022760
H           -6.10432494183162       15.69993287801080       18.74987152794562
C           -2.65811028054628       15.91255993463190       17.25006404164392
C           -1.52160795758704       15.49758597386494       16.54882964676447
H           -0.95348493328783       14.64359076126205       16.90671909706084
C           -1.11840756963667       16.15649998064994       15.39963832980771
H           -0.23892235936425       15.81494031289499       14.86560902187132
C           -1.83830675748639       17.25186365445654       14.94015032286838
H           -1.52068159608029       17.77162009945589       14.04425338229364
C           -2.96175421686327       17.68120523184110       15.63340064785333
H           -3.52362852491457       18.53784686478108       15.28051110802484
C           -3.37300346124904       17.01886035649075       16.77989508117185
H           -4.25139307749276       17.36240575511877       17.31380343840747
C           -4.05871721548000       14.02256504523912       14.77294057847516
H           -4.94733481120569       14.39347685558032       15.27039337024552
C           -3.74450670755412       14.48569877255434       13.50495852454694
H           -4.39709959188090       15.20300956040161       13.02156822603470
C           -2.60307056871897       14.03435465088347       12.85555249959916
H           -2.36341228788635       14.39866259791690       11.86382902491099
C           -1.76848429868416       13.11704482267099       13.48033570747976
H           -0.87335707106408       12.76506380207903       12.98058422700991
C           -2.07808217867268       12.64951851305715       14.74706314927213
H           -1.42368642147504       11.93450804319047       15.23756846721448
C           -3.22805421227960       13.09338299667104       15.41010163338647
C           -4.93109214706085       11.20945133953506       16.82632482650128
C           -5.87105005985875       11.30952041766112       15.79592212576386
H           -5.79627298238723       12.10912019911838       15.06847177239603
C           -6.89969167480626       10.38550303010192       15.69487340067820
H           -7.62191675580630       10.47601103232675       14.89217676760563
C           -7.00456737858947        9.34860854921425       16.61216574523210
H           -7.80887289795325        8.62772058290789       16.52820716506194
C           -6.06914072860735        9.23053348636518       17.63251255638150
H           -6.13517576258216        8.41650410757418       18.34498551852631
C           -5.03925249827772       10.15121564741803       17.73489070024948
H           -4.30014520472013       10.04648517840867       18.52409389957067
C           -4.36311310270506       13.73394001565569       18.04499862598571
H           -5.13571621054345       14.23407737284217       17.45727698681508
H           -4.85824359090638       13.24972378387761       18.89041792846231
Au           0.75959218978278        9.94541518027311       18.31881441121016
Au          -1.64569708655599        9.09786469633569       19.91751681409626
P            0.99000078861070        7.93197971202081       17.04351521642085
P           -1.45403336611239        6.98438865049486       18.72630194542063
C           -1.92122219035484        5.51523648445172       19.68403472167314
C           -2.91076164187555        5.68392693444656       20.66050656359428
H           -3.34187238446927        6.66831949796099       20.81482155712025
C           -3.35173844288166        4.61047652810336       21.41716852659791
H           -4.12364104889450        4.76043105839883       22.16312256482330
C           -2.80719766450550        3.34920938368736       21.21464123957186
H           -3.15355230122577        2.50705187957904       21.80154031302916
C           -1.82053701683750        3.16951584605454       20.25474345927891
H           -1.39608460540379        2.18628974946314       20.08929635185559
C           -1.37658880685328        4.24060836919771       19.49379066832224
H           -0.60630136946856        4.07825261256167       18.74920348528400
C           -2.51275093193289        6.95681392074865       17.25016123114467
C           -2.72129003497295        8.14854017349273       16.54881793866083
H           -2.26553869815215        9.06745865394942       16.90666527934178
C           -3.49349191681836        8.16837739653753       15.39959742801379
H           -3.63715954206316        9.10080431127620       14.86547664010381
C           -4.08249200473975        6.99737609300589       14.94020045163406
H           -4.69141596277054        7.01266597904594       14.04429480563208
C           -3.89294471245428        5.80978270770464       15.63356309088876
H           -4.35415417702656        4.89496926664791       15.28075206911235
C           -3.11372572527784        5.78468005942930       16.78007010072131
H           -2.97233094864914        4.85219590079181       17.31404500353942
C           -0.17556568891620        6.68865341055034       14.77301545680162
H           -0.05264533149485        5.73361406063978       15.27047528017959
C           -0.73369036589819        6.72928486157540       13.50500751841798
H           -1.02871240204584        5.80551122972571       13.02160136574667
C           -0.91333090550470        7.94349677646832       12.85559651365151
H           -1.34861478623982        7.96895937447667       11.86385541373444
C           -0.53606846012355        9.12486862707981       13.48039807773707
H           -0.67865798617341       10.07608522530011       12.98064788248142
C            0.02356380694392        9.09042641672364       14.74714544757217
H            0.31569551075194       10.01461516967416       15.23765608050884
C            0.21394796480736        7.87255953951216       15.41019185712621
C            2.69688342513281        7.33938977913308       16.82655415342783
C            3.08010527274301        6.47512197790763       15.79629192910905
H            2.35019432031645        6.14000564178411       15.06892454511812
C            4.39461761451604        6.04620610136510       15.69527019512471
H            4.67727721469356        5.37532970372553       14.89268156578099
C            5.34509454912042        6.47393772895125       16.61244860312670
H            6.37153244205065        6.13776527202787       16.52850898266421
C            4.97972810175297        7.34326877371790       17.63266156423170
H            5.71775761990754        7.69318076301772       18.34504853885761
C            3.66748297595565        7.77492268270723       17.73501543053009
H            3.38872804376300        8.46751989969489       18.52411531000442
C            0.22645507088236        6.56931107514151       18.04515295805124
H            0.17956094085609        5.65016398307582       17.45740742318651
H            0.89332484689460        6.38252237624781       18.89058246363446
Au          -0.76066245922624        9.94525404232326       22.72283964556968
Au           1.64554733126607        9.09837070542972       21.12438391615663
P           -0.98993082504927        7.93204482928709       23.99808406148739
P            1.45393782475593        6.98426441341718       22.31522213454797
C            1.92107322589998        5.51521017744218       21.35734212929581
C            2.91102885083501        5.68386424012100       20.38128472024524
H            3.34246594032998        6.66817266498597       20.22734768922361
C            3.35200243609082        4.61047069005427       19.62455396261734
H            4.12423565261750        4.76038436415633       18.87893477962764
C            2.80703072427609        3.34931035308995       19.82658610815262
H            3.15338056492522        2.50719310323013       19.23963017430047
C            1.81993664519937        3.16967221529589       20.78604798522376
H            1.39513091597104        2.18653352595207       20.95109562979172
C            1.37599415350846        4.24070846731768       21.54707724600053
H            0.60535883582491        4.07840986818754       22.29131695149888
C            2.51267654583918        6.95657111549834       23.79133445605720
C            2.72164771889374        8.14829525130891       24.49254816393711
H            2.26625391145512        9.06734491291479       24.13458913521420
C            3.49382169244376        8.16795675805633       25.64179178685347
H            3.63782793135339        9.10038144108597       26.17582545476760
C            4.08233845574070        6.99677323987653       26.10134112997503
H            4.69122384009279        7.01191834447005       26.99727505339570
C            3.89234355199743        5.80917362562592       25.40810887554790
H            4.35315859629639        4.89421307086673       25.76105070205481
C            3.11316198466361        5.78425163354067       24.26157723836488
H            2.97140542567685        4.85176835614418       23.72769646540845
C            0.17559670940657        6.68871486603240       26.26859251601198
H            0.05247994436438        5.73365483483520       25.77122022569498
C            0.73383823123124        6.72936622055408       27.53654630543108
H            1.02874610083664        5.80558562705056       28.02000754953585
C            0.91374629796597        7.94360682076527       28.18583148694397
H            1.34911609127941        7.96908285795708       29.17753360904528
C            0.53664955896765        9.12498996409783       27.56095119369042
H            0.67945862193768       10.07623022557479       28.06059349215307
C           -0.02309876106504        9.09052593788760       26.29425781887641
H           -0.31510443379438       10.01472086233927       25.80368227673794
C           -0.21376054548925        7.87263170465683       25.63134597639157
C           -2.69683342267489        7.33954401603149       24.21515616525067
C           -3.08006462120995        6.47532093151012       25.24545417194713
H           -2.35015828305404        6.14021672610345       25.97283081374641
C           -4.39458319715922        6.04642635278441       25.34650231328609
H           -4.67724794150562        5.37558908387295       26.14912336324863
C           -5.34506049418829        6.47413082176685       24.42931255802272
H           -6.37150360929543        6.13797587191876       24.51327814379999
C           -4.97968814599122        7.34342602992835       23.40906725532751
H           -5.71772210225639        7.69331731121313       22.69667413530894
C           -3.66743408981909        7.77506984660416       23.30669203210659
H           -3.38865570694979        8.46764962233819       22.51757937753246
C           -0.22655163066155        6.56930151302753       22.99641168025328
H           -0.17966567848065        5.65016360905994       23.58417028627860
H           -0.89347499149888        6.38253122619237       22.15102137741143
Au          -0.94601952313787       12.90068036145534       22.72374860887828
Au          -2.88326835030225       11.24024420700223       21.12308704035423
P           -2.57483759215991       14.10618141625110       23.99811867546107
P           -4.61745287269747       12.46350358266630       22.31528349898102
C           -6.12330817054764       12.79348020368629       21.35746736983608
C           -6.47201672545887       11.85210155982393       20.38106966147461
H           -5.83508228791993       10.98652446240740       20.22681886789448
C           -7.62214274640174       12.00691290649395       19.62440373774141
H           -7.87826452789726       11.26340126971349       18.87850846960495
C           -8.44211860485926       13.10918211976187       19.82684841773502
H           -9.34462058159877       13.23030395051009       19.23994004009904
C           -8.10436726958107       14.05356571629709       20.78666903131552
H           -8.74360239877227       14.91280558577141       20.95205067659283
C           -6.95480119944730       13.90250834153439       21.54762528530920
H           -6.71022616723130       14.65082108086812       22.29215369618363
C           -5.17071738892599       11.56036452686760       23.79137345404755
C           -4.24296158592370       10.78382331987227       24.49267699537574
H           -3.21928224784095       10.71904241387109       24.13485548728374
C           -4.61190255410464       10.10511971421294       25.64185848270365
H           -3.87624985035256        9.51442990687130       26.17594199650201
C           -5.92050698970967       10.18059160901148       26.10127055419335
H           -6.21174040104788        9.64559344144803       26.99716354450682
C           -6.85418324976682       10.93862910735526       25.40795237766172
H           -7.87702656770994       10.99667623743343       25.76078533692068
C           -6.48629123999863       11.62602768260448       24.26146975074076
H           -7.22311442336473       12.21478858143252       23.72752144355864
C           -4.23432011421409       13.71837907805639       26.26861055228977
H           -4.99990980903310       14.30245318127840       25.77121090966967
C           -4.47819689129801       13.21463534837723       27.53658356461936
H           -5.42568854281301       13.42106768223349       28.02003135051218
C           -3.51651846490079       12.45182824731180       28.18590519547881
H           -3.71210937053516       12.06208072004869       29.17762626961261
C           -2.30483188699096       12.18779658298337       27.56104294174050
H           -1.55238275575761       11.58860401026170       28.06072622380735
C           -2.05484434262886       12.68974372639332       26.29432202087496
H           -1.10845212718392       12.48059495046053       25.80373817457291
C           -3.01431489564221       13.46369244506820       25.63138337805118
C           -2.23448875198821       15.88063927905154       24.21518396803577
C           -2.79108823292682       16.64454941009884       25.24566239888242
H           -3.44608899105843       16.17991644438922       25.97314118783742
C           -2.50525020621401       17.99739553502690       25.34674819411049
H           -2.94471033349666       18.57754189214902       26.14950892445291
C           -1.65981142737818       18.60675360711495       24.42942001992979
H           -1.43769720917840       19.66375073472550       24.51341515824226
C           -1.08988251484419       17.85576788094616       23.40899352296358
H           -0.41800914290432       18.32003504786806       22.69648783837475
C           -1.37221393630091       16.50351226541392       23.30657769192360
H           -0.91201991471369       15.91587272181918       22.51729096979573
C           -4.13669804363303       14.12636805925391       22.99647071081377
H           -4.95614536104872       14.54531789072697       23.58422470349253
H           -3.96497577487256       14.79731351234115       22.15107256838409
Au           1.70715089832310       11.58312370183716       22.72356259983031
Au           1.23835485250787       14.09233701722519       21.12235379476290
P            3.56456136497603       12.39164790862093       23.99814370058192
P            3.16340334655059       14.98187331174476       22.31517262324295
C            4.20218930541769       16.12089451665256       21.35730858716185
C            3.56127386117535       16.89375868958976       20.38106243957816
H            2.49315804903505       16.77508812542485       20.22693906031652
C            4.27045372197674       17.81234355343655       19.62436800911557
H            3.75461135617586       18.40605179700403       18.87858919064449
C            5.63509353649669       17.97109110071377       19.82661759982270
H            6.19127435582797       18.69207242260762       19.23967995139296
C            6.28409346363908       17.20621141723060       20.78627668881834
H            7.34788196005453       17.32999863563084       20.95150759588574
C            5.57844783715881       16.28623835244571       21.54726467152325
H            6.10424193007629       15.70014120405297       22.29167114378454
C            2.65807172750918       15.91269683562364       23.79125204877638
C            1.52159122557228       15.49773639540532       24.49252858186922
H            0.95351367391022       14.64367828265669       24.13473163153674
C            1.11836343707132       16.15670488278521       25.64167288249430
H            0.23890644467846       15.81512352541905       26.17573462282702
C            1.83820802126193       17.25213266603870       26.10108406103559
H            1.52056683109592       17.77191950878639       26.99695731963250
C            2.96162604252779       17.68148523402412       25.40779424456840
H            3.52345782833919       18.53817828317856       25.76062784892290
C            3.37290903709581       17.01907379181928       24.26134526861873
H            4.25127685226410       17.36263559787359       23.72741167109655
C            4.05883190903447       14.02284969923820       26.26847058042621
H            4.94747539191322       14.39366850045764       25.77099253236632
C            3.74465199716255       14.48607693960544       27.53642331672451
H            4.39729798808684       15.20336561429581       28.01977342813420
C            2.60318277921580       14.03484716809494       28.18585289029584
H            2.36355236305859       14.39922405507384       29.17755614363201
C            1.76852552616000       13.11756671097306       27.56112089145284
H            0.87336520845652       12.76568430779536       28.06088146599151
C            2.07809511543483       12.64994710801340       26.29442480596491
H            1.42364588613318       11.93496540427574       25.80394805269000
C            3.22810315107105       13.09368615097940       25.63137395554598
C            4.93108862791722       11.20963672121949       24.21521014053020
C            5.87095271169123       11.30961692675671       25.24570455603936
H            5.79610286383515       12.10914500323674       25.97322636801755
C            6.89958166595783       10.38558804696986       25.34676750420614
H            7.62172582705685       10.47601949493665       26.14954601692829
C            7.00454098533460        9.34877604054080       24.42939240319089
H            7.80883249537899        8.62787426403247       24.51336932493563
C            6.06920910340174        9.23079515039964       23.40894438466931
H            6.13531038385970        8.41682800774904       22.69640647423051
C            5.03932512534291       10.15148456354141       23.30655867882477
H            4.30026864577461       10.04682295060520       22.51729823115665
C            4.36304692632385       13.73402482506506       22.99635131348090
H            5.13566879658344       14.23417545170128       23.58404489803334
H            4.85818482221666       13.24977025395465       22.15095550905711
