307
 energy: -470.531815186714 gnorm: 0.000563738635 xtb: 6.5.1 (579679a)
Au           8.56320715937995       20.28407276275173       19.68941634230737
Au           6.58261164598358       19.96186071730512       16.32528894430018
Au           3.63049636990464       20.91224976281210       19.99463295133635
Au           7.88510245208949       18.26158736959143       21.16861026164936
Au           7.68150458474740       17.63571950157032       18.24228045270070
Au           5.53287058344545       16.55492062665441       19.80154034943745
Au           5.66662485464207       19.23716460079075       19.20869150080482
Au           5.98451586606479       21.92304454053567       18.71134308766047
Au           4.00505844417746       18.49797074551276       21.73874282508566
Au           2.86584730357767       17.90569396168332       19.48245871394116
Au           6.14279903933114       20.87076757297057       21.36982321818303
Au           5.03712719412239       17.52430659795368       17.15071731484673
P            9.75011961348120       17.25970555804789       17.10413218399531
P            6.56217914220743       21.26400597970357       23.69009935786022
P            1.40101264921013       21.76502980143583       19.86319347051894
P            3.56061066204921       16.62624874802871       15.49870684104025
P            4.52445073028883       18.99549842251793       24.05665234293543
P            1.46926777362183       17.00328593776014       17.71390751653057
P            9.62371840697879       22.23888560558855       18.71928630445844
P            8.71896169009494       19.49861791001614       15.27379433262826
P            7.83908633467207       16.32422456652579       22.62787418289410
P            5.59533237353231       14.69788958918590       21.30490750905442
Au           4.10079743657365       20.52040404036477       16.84615195600529
P            1.83728082334289       21.39424437937956       16.84611246250050
P            7.14694392657033       23.79988329653361       17.79359487975646
C           11.27563774513423       16.97867925896765       18.06926962456712
C           11.27914127661225       17.30306414728573       19.42733923255466
H           10.37580516482771       17.68940976445583       19.88676570890713
C           12.41769366461325       17.12955208513239       20.19793342205489
H           12.39826323972479       17.38585535798185       21.25095572561349
C           13.57307631748477       16.62165486577276       19.61973669244408
H           14.46428170341051       16.48102627424678       20.21957549526645
C           13.58049928293429       16.28563941634085       18.27211360466538
H           14.47800936260938       15.88218254241209       17.81819387343498
C           12.44232330021701       16.45995523884714       17.50072173640419
H           12.45988825506291       16.18647963338170       16.45204551795497
C            9.92599691521817       23.44127383694944       20.05262246643377
C            8.95967930263439       23.57188484455707       21.05357807923263
H            8.06211857244989       22.96386600129684       21.01085509155993
C            9.12818270629371       24.47067879112405       22.09349529294133
H            8.36401071327634       24.55864608563496       22.85772374566163
C           10.27620805497755       25.24923162053646       22.15437766760363
H           10.41425929653659       25.94951461521206       22.96953162682011
C           11.24790081975977       25.12503742410586       21.17053893423768
H           12.14647560062405       25.72903350225845       21.21634540754490
C           11.07722547369817       24.22933634019128       20.12568909926703
H           11.84367735068451       24.13848337880567       19.36442392715653
C            0.14391660663903       21.20154386269503       21.06325657907140
C           -1.08760975161372       21.84400810907030       21.21911119837539
H           -1.31790296520131       22.72562864117151       20.63210738181247
C           -2.01864495213626       21.36420600723428       22.12669835297652
H           -2.96943985878150       21.87224624919885       22.23726433790978
C           -1.73642761305725       20.24129074804476       22.89399941375284
H           -2.46611078413775       19.87143439270907       23.60435061966882
C           -0.51334771296865       19.59972165400293       22.75440606936596
H           -0.27939841294606       18.72816731856264       23.35489870570592
C            0.41804236504182       20.07941081717322       21.84736218306377
H            1.37599978468544       19.58032778087018       21.74974773867000
C            6.59308833022220       24.52126605117541       16.20896611290833
C            7.03068743312891       25.76927636014111       15.75664494897636
H            7.70840262930176       26.35919158851443       16.36289479903064
C            6.59815363247602       26.26376175710970       14.53631133463784
H            6.94540119219482       27.23299094633562       14.19814679388665
C            5.72211739069058       25.52568668464723       13.75080309424776
H            5.38425501060286       25.91752919665469       12.79889183134298
C            5.27368423627271       24.28863280645330       14.19319065883917
H            4.58256752952840       23.70868649261292       13.59239155122291
C            5.70540061901050       23.79419429364917       15.41359194325768
H            5.34334267319798       22.83205280160125       15.75924162784312
C            8.38664379241951       16.75133248972422       24.31018631479228
C            9.23372569774504       17.85948980994658       24.42797260050676
H            9.53219214674162       18.39605174941725       23.53298387150875
C            9.69320024942332       18.27747523674378       25.66599570311157
H           10.35063013437633       19.13668734811640       25.73466816114178
C            9.30589408869820       17.59829157758436       26.81346713437723
H            9.66037077133693       17.92432212385265       27.78396993161459
C            8.46263761976294       16.50052503205242       26.71294630756535
H            8.15897671209100       15.96539270271306       27.60517932702752
C            8.00502007033838       16.07753478782704       25.47348681991285
H            7.34454369932677       15.22014826504196       25.41892118208960
C            9.71442882045052       15.89552564883504       15.90606101581632
C           10.47398987902397       15.84202438835664       14.73393731087086
H           11.13647508765509       16.65872180679068       14.47199915998132
C           10.37390493011744       14.75302312413584       13.88183286875374
H           10.96488141063975       14.72870457707158       12.97380717395654
C            9.52112261318653       13.70075280393051       14.18582192962856
H            9.44451639453333       12.85260273849791       13.51605540280430
C            8.76442598210216       13.74032031306944       15.34895983455121
H            8.09630094801527       12.92190722420371       15.59181477422368
C            8.85831552943793       14.82904524975408       16.20018734963102
H            8.25753620413605       14.86245212794161       17.10388709463349
C            3.27931097737873       20.16899492167623       24.67900880476233
C            2.75285274049559       20.11100123107752       25.97178305053500
H            3.08423089178889       19.33828628752342       26.65613338863369
C            1.80389248260465       21.03447236562862       26.38379763545787
H            1.40225174341145       20.97716037920570       27.38865788699473
C            1.36782064311057       22.02721228985929       25.51668144769036
H            0.62541563577814       22.74597574690151       25.84247643551665
C            1.88265714833654       22.09459760630076       24.22896773925778
H            1.54755876775769       22.86491230006625       23.54335442233215
C            2.82607950791513       21.16929489795880       23.81493138515598
H            3.22437094066597       21.22419162276192       22.80722442663194
C            8.26972898556455       21.57088568097163       24.26306766136740
C            8.55699277268980       22.06603007945037       25.53823288291773
H            7.75064193317918       22.30399094275443       26.22235550813206
C            9.87044575765074       22.26197198102025       25.93469255565660
H           10.07856402710412       22.64661754989480       26.92619238452625
C           10.91591509380404       21.97157038548580       25.06748298981276
H           11.94107453019099       22.12927112541628       25.38053748644508
C           10.64300662023111       21.48730060203634       23.79545008335516
H           11.45103807753792       21.26619780796592       23.10760791721066
C            9.32979032197340       21.29169144890412       23.39854226962980
H            9.12208920850512       20.92285779006010       22.40000972538596
C            4.98509342547868       17.30168355918416       26.31587304931523
H            5.68239393082461       18.03648026128455       26.70079048853961
C            4.31542112476604       17.52597703809550       25.10994026352866
C            3.43059897905146       16.54581573134944       24.64555113654660
H            2.90898008162116       16.70441118845516       23.70708511869499
C            3.21350825009940       15.38231109746730       25.36510000684637
H            2.52201413994638       14.63715408149962       24.98859965009039
C            3.88577274661468       15.17295420683967       26.56182456328683
H            3.72124186033665       14.26265774898897       27.12583916451893
C            4.76967597441756       16.13376302400879       27.03287489602361
H            5.29534153717651       15.97653427828275       27.96754586338211
C           -0.24856883681721       17.58491418407155       17.86712309083432
C           -0.66573163122271       17.96817228216020       19.14716548888904
H            0.03051697073714       17.89273031182392       19.97634360750897
C           -1.94951197987434       18.43936390125209       19.36769794269237
H           -2.25294263717191       18.72856597665854       20.36743731630562
C           -2.83998525530177       18.54400264254077       18.30746012378243
H           -3.84396693450362       18.91507335101885       18.47524416035796
C           -2.43935835965544       18.17188692492527       17.03179281330702
H           -3.13113925607087       18.24928746695787       16.20106984159433
C           -1.15531405896529       17.69601217101659       16.80960641784911
H           -0.86283719094258       17.41503151138202       15.80470339549576
C            7.28711974694943       25.22330535076013       18.91263706846924
C            6.23615575580806       25.41205703150746       19.81639143023373
H            5.40575920341845       24.71265194041562       19.82085679738422
C            6.24968439837386       26.47279075578006       20.70710312840053
H            5.42698074412374       26.60522383319896       21.40049860429254
C            7.31683306450143       27.36059149740254       20.71396589170395
H            7.33165067689209       28.18738207345182       21.41397059646792
C            8.36672832511917       27.18361986156593       19.82330430048176
H            9.20380390551262       27.87184395988574       19.82623039394998
C            8.35406243958641       26.12607759656031       18.92693833962120
H            9.18936712634355       25.99881948497389       18.24829822245557
C            9.37917792005656       20.97701160696656       14.44267325296206
C           10.73396993137611       21.23047218764404       14.21237081704176
H           11.48615178716086       20.51450317772343       14.52211064140841
C           11.13336559788729       22.40374119552303       13.58902708365050
H           12.18796343704850       22.58380081882547       13.41566716159471
C           10.19236701742624       23.34097925456787       13.18608141736481
H           10.50990590388543       24.25560550378664       12.69982127473907
C            8.84268691722674       23.10255474608978       13.40874058856253
H            8.10036237916730       23.82916698612522       13.09861222863458
C            8.44221676180686       21.93362378807529       14.03467625202483
H            7.38719776195519       21.75211960666779       14.21345132361359
C            8.43958648140940       18.31570849833884       13.91832831775078
C            9.12034491062262       18.37550312728290       12.69973742626264
H            9.85271611958019       19.15605676739476       12.52760591363339
C            8.86071763461242       17.44396135462699       11.70585807520240
H            9.39409347128241       17.50291247456942       10.76438045980293
C            7.92321358304070       16.44079944957100       11.91183289044185
H            7.72300002765615       15.71543513128232       11.13227842356118
C            7.23944664585459       16.37148424668496       13.11823413031214
H            6.50409041767397       15.59300941718842       13.28845217718315
C            7.49328015199400       17.30541029701069       14.10872289605715
H            6.95448634604523       17.24972580039305       15.04879084308502
C           11.28514672995369       21.84475014524449       18.08951329128546
C           11.92590509456159       20.74189048831066       18.66594666823018
H           11.42424734786512       20.18997720761719       19.45438197237059
C           13.18588721648102       20.34874627616170       18.24565624832381
H           13.66498003306996       19.49284533820216       18.70729226301933
C           13.82710398264308       21.04893567388587       17.23249624270984
H           14.81130864625437       20.74280787983038       16.89865681788241
C           13.20271510479253       22.14237603308466       16.64858813979705
H           13.69983088520675       22.69397543687535       15.85911818586921
C           11.94242080096504       22.53982462940327       17.07075777612900
H           11.47201716225748       23.39393208343635       16.59792735965055
C            1.34943102618883       15.20217078692728       17.95126857086045
C            0.17876424830259       14.47648720971059       17.71727934726164
H           -0.71550513431690       14.98758838558039       17.37918532753297
C            0.15246993406421       13.10489009721481       17.91990734463374
H           -0.76259684948868       12.55414973920450       17.73638596217914
C            1.28936830800245       12.43798395916068       18.35615636664021
H            1.26402066851293       11.36638689918717       18.51415911214125
C            2.45860208396964       13.14825032323230       18.59323540533652
H            3.35155873790025       12.63721433465728       18.93554781017275
C            2.48404120554331       14.51878761415634       18.39655756583674
H            3.39919466865847       15.07035369633188       18.58460386072008
C            3.53207500462028       14.81283257719836       15.41069209969138
C            4.72290566713287       14.15282553053780       15.73158705647758
H            5.59179859112210       14.73461369416715       16.02360789041892
C            4.80046154423390       12.77045646561868       15.68831784396550
H            5.73093878408973       12.27434102648845       15.93979696589129
C            3.68741848210175       12.02318023820844       15.32812964653127
H            3.74488148487288       10.94166174861571       15.29932818994808
C            2.49935612037994       12.66587598658294       15.00811941416566
H            1.62660140052561       12.08738571269823       14.72883072001044
C            2.41947041971591       14.04941842183825       15.04567580465427
H            1.47935358367157       14.53134545299342       14.80389126496564
C            3.71712109167340       17.16306704451746       13.75930262030499
C            3.15359895557785       16.45314985392535       12.69547858930280
H            2.61165194168749       15.53344721855079       12.88312604364991
C            3.28847846553208       16.91416032190453       11.39532253927299
H            2.84676881663992       16.35304202066114       10.58022122311291
C            3.98778418127982       18.08540717117726       11.13492016235422
H            4.09313300700837       18.44044870702415       10.11674802651136
C            4.55968903553836       18.79482729412236       12.18228742986059
H            5.11635658820180       19.70466167636817       11.98926919686452
C            4.42668256936756       18.33335952489291       13.48201713611179
H            4.88686073268497       18.88432386547384       14.29503476372367
C           10.19910505694592       18.77532510313550       16.13828677194682
H           10.55849752768235       19.51504463653325       16.85710678297847
H           11.01029154024230       18.57516777003375       15.43680718354515
C            4.03318701474541       13.94627238051672       21.88166938034643
C            2.83789348574977       14.63713314503181       21.67378715427128
H            2.85430851122404       15.58944381952080       21.15504149832944
C            1.63023087017088       14.11903690696967       22.11369480164833
H            0.71350784888029       14.67075967277066       21.94009656022779
C            1.60017428676904       12.89456661658966       22.76704535568693
H            0.65769110382720       12.48441034173970       23.10956711314114
C            2.78090179453617       12.19239978137128       22.97244882148662
H            2.76135439852224       11.23302777868427       23.47599782942514
C            3.98893649871947       12.71037615277815       22.53304264906487
H            4.90178944911031       12.14835127442040       22.69325396602920
C            9.27070018773823       15.00023396418476       20.66158519955980
H            8.66388001354529       15.58957393951442       19.98220064581295
C            9.09221219934336       15.14142910176107       22.04027606867787
C            9.88518285523527       14.37777971458823       22.90044430686473
H            9.76908456402384       14.47743483125503       23.97368029574365
C           10.82468802971122       13.49543137246105       22.38873971706279
H           11.43481523003756       12.91051528732355       23.06694374281999
C           10.98616252576393       13.36017533521094       21.01642442685653
H           11.72208168434866       12.67024946661224       20.62100155963053
C           10.20475557422319       14.11433930792235       20.15130245612566
H           10.32413167074414       14.01746229011816       19.07794565521224
C            5.59446300015699       22.61995256488137       24.41333086362791
C            5.16029824142725       22.67228287962380       25.74082046369618
H            5.38026242395441       21.85890133830666       26.42236116269652
C            4.42533299206206       23.75580364521296       26.19671162504846
H            4.09072960753925       23.77917168984052       27.22717365191791
C            4.11647669905244       24.80384918980770       25.34051235919326
H            3.54046091600353       25.64787867910781       25.70055048089293
C            4.54511362560207       24.76525259474686       24.02072785646576
H            4.30684959192265       25.58038277962279       23.34695051222385
C            5.27507389250539       23.68176579869568       23.56040608603406
H            5.59937315438551       23.64878546392169       22.52478840812466
C            6.11762505377704       19.74710693083832       24.65541418297895
H            6.08186225762354       19.95251831662690       25.72622163577630
H            6.91292572581718       19.01808040473104       24.48508374163591
C            1.28252976900734       23.57682073115864       19.90348299903281
C            2.25698120181724       24.24886119700490       20.64897800748787
H            3.03133558636895       23.67711162432943       21.15120743682705
C            2.24784827427212       25.63069349677639       20.74455150477859
H            3.00970189637859       26.13598309054446       21.32716396331431
C            1.26774416005360       26.36574848180028       20.09175836175378
H            1.26270743336855       27.44696271307021       20.16075143455467
C            0.29599976408784       25.71111758310712       19.34743123688899
H           -0.46979158808206       26.27997366562778       18.83330636595547
C            0.29891824254566       24.32790081603247       19.25395959194633
H           -0.46163474562247       23.83724350558791       18.65790662665833
C            1.92146587520848       23.19634446609363       16.60051827787757
C            1.00505237061684       23.90521953837704       15.81984570207357
H            0.19678587962076       23.37961951550606       15.32418596576835
C            1.12621572694972       25.27863774368751       15.67106308990509
H            0.40972346543367       25.81619918044781       15.06113434608516
C            2.15839394611619       25.96412301378851       16.29738969994610
H            2.24981165707318       27.03707346696662       16.17758349673482
C            3.07617806150137       25.27064236943515       17.07491437577182
H            3.88705416686093       25.79622139986271       17.56685636435710
C            2.95937706591939       23.89832638154419       17.21906412650196
H            3.68009590737640       23.35985695033520       17.82548962869417
C            0.63795138506954       21.23870245152864       18.25956947886331
H           -0.28505669099428       21.78461388674341       18.05920863682730
H            0.38123504139044       20.18201415265936       18.36197844832614
C            0.89655288818424       20.79229519797313       15.40920098184213
C           -0.49370993208613       20.66042682307663       15.35807268997229
H           -1.10260371923450       20.93878608911528       16.21019462736345
C           -1.11127788586258       20.16701610907381       14.21800494528801
H           -2.19077981347969       20.07355626252471       14.19368926113560
C           -0.35623901470311       19.79743775481481       13.11359208946554
H           -0.84389964807099       19.41222260390866       12.22611827522635
C            1.02611282727367       19.92289071332786       13.15027387387413
H            1.62478009305039       19.63603191811000       12.29323399489630
C            1.64466324016621       20.41222409804422       14.28892491002462
H            2.72558898279062       20.50489481785660       14.31750696309069
C            6.35738864554733       15.23412248176629       22.90574806536026
H            6.60635651095012       14.37839676975097       23.53493381669282
H            5.60507948795981       15.82464438930860       23.43331316266204
C            6.58674383826060       13.29094262888850       20.72549389016806
C            6.63277628010008       13.08827976713177       19.34214128807324
H            6.09667291941558       13.76770293880264       18.68660386542381
C            7.35943286077907       12.03917766432205       18.80357077725750
H            7.38456020790188       11.89598484989459       17.72930415801656
C            8.05719616593836       11.17688453513006       19.63821163231205
H            8.63072469558676       10.35928215259027       19.21820982304401
C            8.02060910544663       11.36763356070318       21.01268168683906
H            8.56582039277119       10.69936865455263       21.66882556236639
C            7.29050297585106       12.41375141689469       21.55543829437701
H            7.28535383146635       12.55248519143372       22.63023957589719
C            8.88257313845954       23.30019809342769       17.38299298253551
H            9.50820183934406       24.16875504471555       17.17255457612211
H            8.83317517380552       22.69990874046650       16.47183699718165
C            1.82651086351791       17.14473989479232       15.89315404312797
H            1.73879231733965       18.19809846343114       15.61786995127641
H            1.09959378489129       16.58699678429624       15.30100115797565
