265
 energy: -435.313838395136 gnorm: 0.000698155048 xtb: 6.5.1 (579679a)
Au           2.79302320691726       -0.25542156727835       20.98052062904101
Au           2.78470324773608        2.56480084308500       20.87593918254128
Au           3.61132357113104        1.18921744791690       18.51896807756772
Au           5.36167401760701        1.27342869245908       20.92944466207182
Au           3.56724858124291        1.38500151240014       23.31642997499318
Au           4.83445164337167        3.77194457294371       19.38988383523666
Au           4.82902174379089        3.88342509974407       22.34488479280104
Au           2.08517677840443        3.88601841669510       18.46166117862155
Au           0.18884819171663        3.82717165867161       20.79634819276184
Au           1.89612954039049        3.78773889443909       23.26441918048765
Au           2.73691450981171        5.38534891532322       20.93053090277833
Au           0.79404891731542        1.31684948966364       19.30648097553759
Au           0.66788636068317        1.28574477187113       22.25494145319896
Br           7.70933632958044        0.56223054604305       21.21471475006553
Br          -2.11200982334242        4.59174689156283       20.29875619391058
N            0.50821268897635        5.89779839519698       16.57928458067441
N            1.87338721572644        4.74261756572433       15.37984036122208
N            3.94895741315819        0.36699587502948       15.43547566618918
N            3.94868197769981       -1.38832309876088       16.67835629543496
N           -1.11872050146298        0.99803708137757       16.81434129642813
N           -1.10620318599111       -0.83476595249801       17.94624293020909
N            1.90696439887110       -3.32998146292831       20.84843218769797
N            3.80679259374662       -3.10919936974565       21.84737141332786
N           -2.27525037748684        0.45162048352513       23.00485135246499
N           -0.90073819947033       -0.87472920305785       24.00668918324749
N            3.61510358377792       -0.63027551563051       25.78370465415498
N            5.18425320126631        0.83574825285022       25.95625571907162
N            0.30893665743754        4.16800320255688       25.97960551108221
N            1.76080644696325        5.74253099764030       25.76455487518252
N            6.22736446946179        6.25845255631890       23.94527619670945
N            7.71844270847369        4.96706103806140       23.07681582598805
N            1.59322303979331        8.23834015923282       21.60946931505341
N            3.50037758604465        8.47073644470846       20.62549014237469
N            6.73102840031143        5.91857399983181       18.00421741916251
N            6.97656309239498        3.96967108895516       17.11636840784104
C            0.75825305026608        7.78467220412420       18.08200094298316
H            0.82087449843410        8.45770926755806       17.22762095654797
H            1.76657005066743        7.48019061060568       18.36251309560232
H            0.30636059798265        8.31785081976451       18.91616152808672
C           -0.07923922959287        6.55914402800578       17.73063497409911
H           -0.10270810871749        5.84806130752681       18.55999083930022
H           -1.10598361979137        6.84342447312362       17.48650282065186
C            0.30353695673889        6.31239713423914       15.27368739767482
C           -0.56594179673025        7.23685023157128       14.70491818624993
H           -1.25181468652507        7.82049580432460       15.30506815411065
C           -0.51898595517476        7.37165481999131       13.32801564631267
H           -1.17787603765794        8.08108042578358       12.84177176716454
C            0.35166668018577        6.60684154442638       12.54372875912542
H            0.34341000991280        6.73866512948112       11.46835602232273
C            1.21739512720860        5.68386068958262       13.10573725087924
H            1.87871142762097        5.08460464847590       12.49338406095028
C            1.18751862902743        5.56049663811430       14.49023246294093
C            1.45812327853533        4.95770162967428       16.64684395385601
C            2.92524057511324        3.87969542187184       15.00461786199874
C            3.94699554281225        4.36252931242763       14.19089577170053
H            3.94927596118515        5.40124106814515       13.88592938181752
C            4.95778221042173        3.50680328657064       13.78032387022869
H            5.75059281899122        3.87744483659249       13.14175025066663
C            4.96138922250013        2.17895307578794       14.18333931157298
H            5.74279372256116        1.50448810720366       13.85678323889497
C            3.94930822987416        1.71734111752305       15.02004213954867
C            2.92314672506741        2.55773492489254       15.43223990144621
H            2.11594739312808        2.17516208157367       16.03940154985482
C            3.92344312718739       -0.05019905021266       16.71846249989423
C            4.00893043447689       -0.71083704228616       14.56323697929207
C            4.02639526700246       -0.80097017778280       13.17617290359503
H            4.01025552751022        0.07999934883112       12.54759309328180
C            4.06005512606277       -2.07543349617473       12.63629786569941
H            4.07927934898753       -2.19479035092474       11.55961655316169
C            4.06352780842949       -3.21700234521630       13.44572210976141
H            4.08720023799605       -4.19323153662562       12.97632069852455
C            4.03002204031977       -3.13048780187696       14.82706944195316
H            4.01880857791918       -4.01804569731492       15.44624304527719
C            4.00487024134659       -1.85194460312198       15.37426356025565
C            4.04496637977855       -2.25668360467661       17.83701603706522
H            3.35450191700305       -3.09555534430637       17.70488730195725
H            3.73514919316047       -1.68080300629168       18.71257101875649
C            5.47663894810380       -2.75259289112450       18.00442783703050
H            5.81271354082890       -3.26237407415615       17.10273029525979
H            5.52311881620452       -3.45113337765096       18.83813227464697
H            6.14361878435365       -1.91367891207122       18.20015706437749
C           -2.08212162006637        3.25168560325665       16.84256412572961
H           -3.00785639326857        2.87425361894987       16.41094032600943
H           -1.91696998210979        4.26932082187095       16.49048698727833
H           -2.17882978117341        3.27028897447880       17.92887917152631
C           -0.90230072174306        2.38096247261364       16.42800754272993
H           -0.75033880676094        2.41896306786747       15.34480423691243
H            0.01033596545990        2.72268082989527       16.92220438302745
C           -0.61070095273522        0.42052323182209       17.90783003499701
C           -1.95848410647385        0.13203482864691       16.13490052206938
C           -2.69538242021851        0.26125882309227       14.96262545225674
H           -2.70083106442189        1.17942522785405       14.38975573935377
C           -3.42128078019392       -0.84565914319420       14.55723451888918
H           -4.01269032592158       -0.78939813408558       13.65116624514117
C           -3.40493698339052       -2.04172372261400       15.28324200524786
H           -3.98092502783892       -2.88461115195302       14.92039517283130
C           -2.66844890942743       -2.17645857936966       16.44802035514695
H           -2.64777845946026       -3.10829799869732       16.99819064508877
C           -1.95428035984803       -1.06055014147116       16.86924558453646
C           -0.88033020949477       -1.76775783948450       18.98267917755697
C            0.41756707543282       -2.07932462448259       19.37513357902725
H            1.26210795302247       -1.62899241329673       18.87466819854382
C            0.60730381678274       -3.01035975506346       20.39034768993447
C           -0.48383817734478       -3.63181573398034       20.99345920924925
H           -0.32360835264202       -4.35913846031021       21.77858865032589
C           -1.77063755636728       -3.30639051427581       20.59461529344764
H           -2.61875141434956       -3.78073560196428       21.07342576415063
C           -1.97663551357328       -2.37092106358969       19.59284845934740
H           -2.97999702103055       -2.10283683946648       19.28767230149905
C            2.33432832929381       -4.61933031832070       21.14521795853016
C            3.57020558985360       -4.47228589710384       21.78871750718931
C            4.29656304247300       -5.57316338407721       22.22948251145192
H            5.24783604809112       -5.46490742209829       22.73380967213540
C            3.74857818992154       -6.82081789120693       21.98457438916980
H            4.28120484193165       -7.70694399300117       22.30845431584923
C            2.52757343818966       -6.96878637601514       21.31772141801837
H            2.14588065579665       -7.96617933585442       21.13510097995482
C            1.79817632871193       -5.87502102415060       20.88247763518806
H            0.86045407861139       -5.99639317143582       20.35591247987297
C            2.81234903751233       -2.42102234044913       21.27696188017219
C            4.95855917995226       -2.51302586407266       22.50612232480280
H            5.11415497079803       -3.03345682454186       23.45610405681441
H            4.71001995816685       -1.46945403003393       22.71552377384768
C            6.20420359465486       -2.59804055954738       21.63663532607053
H            6.05042002407655       -2.04723185656753       20.71091880372425
H            6.44314305824446       -3.63414298526131       21.40236395402195
H            7.04394464210348       -2.14597241552324       22.16274284495080
C           -3.00652618483600        0.97718560020384       20.72718844440508
H           -3.30255120114112        1.80666245764675       20.08551576372723
H           -3.78005167887411        0.21061777257070       20.70802923944278
H           -2.07945493792217        0.55160964243721       20.34412558183739
C           -2.79371587751665        1.49995394515776       22.14204005578400
H           -2.06876439531215        2.31700502787082       22.12813731934658
H           -3.73221061481373        1.86840628837986       22.56414284124793
C           -0.97594198540241        0.22433775979748       23.22319304421146
C           -3.06193659495698       -0.49312416430085       23.64107396575779
C           -2.17288709735154       -1.35463574823527       24.29794604256310
C           -2.63248338187488       -2.40008426651653       25.09135330919591
H           -1.95583959018690       -3.04642186427460       25.63497791966660
C           -4.00470004262460       -2.56995803344201       25.16850914494314
H           -4.40466192611524       -3.37438805731345       25.77415322360968
C           -4.89062071791735       -1.72511990756651       24.49123704055015
H           -5.95613383209618       -1.89885521643574       24.58237358603688
C           -4.43914963413622       -0.66689644094357       23.72143561375054
H           -5.12823707006592       -0.00466011445185       23.21368384942377
C            0.30320864155452       -1.49838805719829       24.39933295001119
C            1.35657575987559       -0.73845477035727       24.89801851463295
H            1.25028679763642        0.32875378895704       25.02979414278733
C            2.53403247467414       -1.37892510644179       25.26906879144332
C            2.66322473884585       -2.76007670259042       25.14885991038644
H            3.58840024425040       -3.24405326252347       25.43473843654335
C            1.60383059910360       -3.50402442264410       24.65306636618710
H            1.70034248247767       -4.57835591337275       24.55195655905647
C            0.42449083507848       -2.88020513530909       24.27715827907399
H           -0.39801511545054       -3.46056729829199       23.88075829056007
C            4.15249032831573        0.45974451321746       25.19501493306438
C            4.31554045196559       -0.95897414705414       26.93820687797578
C            4.13861201993970       -1.94555236206491       27.90161742779835
H            3.33502649796535       -2.66780890477473       27.83858516122389
C            5.03621544497501       -1.95529293518204       28.95591697884910
H            4.93777101445316       -2.70905299873818       29.72794459520420
C            6.06516131814362       -1.01232625701189       29.05531725275239
H            6.74226632962892       -1.06081221739802       29.89972323595639
C            6.23190341629977       -0.01558613000574       28.10925832783049
H            7.02024283477868        0.72038980897422       28.19894076014011
C            5.33477432880142       -0.00425249952841       27.04676122923212
C            6.09463925687633        1.92140072378182       25.63771236136301
H            5.57307511216906        2.60580025263290       24.96317099223510
H            6.33685460962140        2.45379314506054       26.56221595531933
C            7.35722593101814        1.37962682172150       24.97698738148508
H            7.12026356539314        0.91669217225276       24.01847165378062
H            7.83346993326058        0.63808606509512       25.61687370445091
H            8.05562935467409        2.19823095284134       24.80872946715979
C           -1.84191019458849        3.49085445833475       25.04612958532847
H           -1.64173922710735        4.00735083393700       24.10765094463249
H           -2.36820613127807        4.17063734300924       25.71465825994168
H           -2.47632593193249        2.62783397534401       24.85022178472305
C           -0.53465126803534        3.02643994667462       25.67813294108207
H            0.01314077347377        2.38040254659375       24.98685838354755
H           -0.72299504574107        2.47572098640168       26.60415234730204
C            1.27682782932613        4.62796690786750       25.17941165162132
C            0.14373336531971        4.98391774091942       27.08652826025219
C            1.08721939992465        6.01017373903508       26.94893841920506
C            1.22935952579968        7.00284244408730       27.91158111381402
H            1.97299385948088        7.78385598386474       27.81967234995780
C            0.37596386007936        6.94051142722540       29.00016358037177
H            0.44820097638150        7.69552787482983       29.77385104918502
C           -0.57627129840233        5.92355025398794       29.13151987240971
H           -1.22123189875221        5.91749221167018       30.00207974427694
C           -0.70881493984398        4.92339539309643       28.18347480861269
H           -1.43917156322968        4.13274236238112       28.29652971113482
C            2.77653583311868        6.55741430000472       25.21721933957502
C            2.54242594459197        7.91925394646124       25.05217586573703
H            1.59321040139362        8.34530274697388       25.35125877526415
C            3.53072960892924        8.71579669562851       24.49395219837392
H            3.35154005616031        9.77421061647442       24.34761175317518
C            4.74409911449139        8.16404026561424       24.11370519780354
H            5.50738408058874        8.78443062144209       23.66313146664164
C            4.97815984813052        6.80448065385551       24.30555396515985
C            3.99332150854769        5.99072928238490       24.85581987533438
H            4.18291175725743        4.94212992783038       25.03527590181914
C            6.40204714246954        5.10407753626005       23.26143305912943
C            7.45243201488130        6.85974221592666       24.21256384119577
C            7.81591072344171        7.99888402573134       24.92272618122258
H            7.08281126790400        8.63238974980350       25.40465794626327
C            9.16931682815999        8.28092693514104       25.00287969400150
H            9.49466737159448        9.16055266609687       25.54536573047000
C           10.13029218943433        7.45500708249050       24.40995622561901
H           11.17750922200959        7.71743799944873       24.50078958400956
C            9.77559841361240        6.30513405846056       23.72590322456336
H           10.52314766478086        5.65753379635036       23.28669826310083
C            8.41721984660500        6.01963964001094       23.64191280172165
C            8.34708078824343        3.89836923931874       22.32098211659855
H            7.66821124808897        3.04245760690420       22.30464828983835
H            9.26895450460276        3.60615098048664       22.83113260426295
C            8.64110615383783        4.35506883615018       20.89754657338412
H            9.08251534684067        3.52904776965880       20.34160713037818
H            9.33245571050624        5.19689457532251       20.89485978289557
H            7.71767928027409        4.65766178375564       20.40455259137173
C           -0.81774481107212        7.70794988348399       21.50855325749836
H           -0.73564924351535        7.09156220937118       20.61560255044930
H           -1.04483466894152        8.73182344160755       21.21692321248359
H           -1.63857575092507        7.32129704251558       22.11115998616069
C            0.46949080804171        7.64604763901862       22.31860076622258
H            0.73406991364020        6.60812896277731       22.53657660146668
H            0.34924394300151        8.18176725525948       23.26572243354387
C            2.62950083209250        7.55570068231445       21.10854800595642
C            1.77501565701886        9.60378107253661       21.45978842446647
C            1.00126716749947       10.70246675532333       21.81818215777302
H            0.05132529555787       10.59230679280366       22.32440864473747
C            1.50095674280933       11.95158858263571       21.49103770141458
H            0.92976255702615       12.83526455604881       21.74924488548886
C            2.72165141485577       12.10327408551714       20.82465789628690
H            3.06419909725851       13.10035413582925       20.57507049517290
C            3.50026971017706       11.01278339584300       20.47534406607466
H            4.43910612083096       11.13505617320794       19.95098233512845
C            3.01252631584849        9.75771075178377       20.82169077988990
C            4.82561560000543        8.18364796663445       20.22131012071420
C            5.86610460888164        8.89699310909850       20.81254674102393
H            5.64657512030413        9.66300058737203       21.54504248400906
C            7.17880559123388        8.61444408142896       20.47015118004306
H            7.98778427619172        9.16235354852470       20.93797876177005
C            7.45980396997280        7.62493132660408       19.54155014533933
H            8.48385268736071        7.38717962208775       19.28320455825118
C            6.41392167106383        6.92488046632281       18.94626467088542
C            5.09025201769506        7.19791929489186       19.27636567999135
H            4.28243994091016        6.67605320956150       18.78425492249096
C            6.35100053090201        4.62654485646076       18.09951966902562
C            7.62891822706541        6.08805821647288       16.95782525078405
C            8.27302193056861        7.20608585744047       16.44053814196476
H            8.13651632766233        8.19102417874146       16.86800556897565
C            9.09538864936484        7.00048574926931       15.34558365201025
H            9.62117785213741        7.84291947706344       14.91234187955758
C            9.26312503194269        5.73195136174011       14.77934741121012
H            9.91816976712166        5.62137283610976       13.92343524153913
C            8.60917117772125        4.61915130168386       15.28048267598969
H            8.73529756279096        3.64191792286643       14.83259844837840
C            7.78499081878503        4.82038824869092       16.38222366369996
C            6.92729224780082        2.53061976954029       16.92669895225004
H            6.97974794933055        2.32391450471506       15.85416226965819
H            5.96320604923387        2.17775921622472       17.30248479576581
C            8.07129051343370        1.84663188491720       17.66455313500598
H            9.02957612301441        2.24307163504854       17.33209040947586
H            8.04096300016536        0.77643874765125       17.46391250125338
H            7.97799675583707        2.00016632416636       18.73948536555965
