337
 energy: -475.034124391586 gnorm: 0.000617012772 xtb: 6.5.1 (579679a)
Au           4.34061675752156       12.16657068170478        7.46217223172727
Au           1.61246795734170       11.29365011719875       11.93482755427939
Au           5.57414926557900       11.07606252069397        5.28135723170986
Au           3.28053142087127       10.58492579854716        9.38962444416149
Au           2.91816404192164       13.18522633156918        9.54221198181809
Au           1.58596615265166       12.33965715917453        6.07537913585875
Au           3.64156610081898       13.31532797975576        3.61409701078399
Au           7.14082203196050       13.03610510661315        3.06451805684684
Au           4.64863679200809       11.79924136844890       11.83308240267516
Au           6.83823065075075       12.09374830249004        9.21115847955412
Au           0.40086969256653       11.43321187174687        8.89510737002344
Au           8.42438094493372       12.28324853714483        5.81586583261757
Au           5.72173476137786       13.68225377921848        5.69022908316107
S           -0.10762482785462       12.55029872149262       10.93377118712509
S            0.79642480596165       10.24775305012780        6.87566138461547
S            3.39346784926973       10.01389349798059       12.78167360616331
P            2.11333970509273       15.25557117748505       10.42569491854269
S            2.26614255281701       14.42608902745416        5.18224780320796
S            9.09559374077892       13.80396218013898        4.14635593508891
S            5.12682511821871       12.31796901235358        2.05862601969930
P            3.17787660355446        8.22270342931187        9.55134896820605
P            5.64060578884818        9.03548494711445        4.01486703325574
S            7.56794259812842       10.75154690245787        7.40959926318682
S            6.11733854142561       13.46354525851275       10.99159997703822
P            5.96780749104701       16.04730534838964        5.71324705850600
C            4.22348207060492        8.91324693100261        2.87543461216867
C            1.70639679979477        7.30954458960413       11.74285226425994
H            2.63602880383346        7.39904868205739       12.29400822276312
C            2.10039339588385       15.19430114847266       12.24467134535565
C            1.68886164824021        7.57753111096447       10.37095032017751
C            3.09350647468265        7.51008288978150        7.84604721983688
H            2.91935884609927        6.43062880347150        7.86787937315730
H            2.24544670422196        7.97369729941523        7.33106054923504
C            0.93370035353904       14.97104871891818       12.97851255585932
H           -0.01538390411401       14.87746629540443       12.46348256678429
C            7.06346430863895        8.84984872944078        2.89039411050591
C            0.43303980723259       15.77474631106153        9.95222014950625
C           -0.84712758113201       10.07878334932498        6.12501784834971
C            4.60279398165486        5.92168367288456       10.36240117208983
H            3.83134404430897        5.34190640231048        9.86757908952360
C            3.11268343504649        9.73122153548093        3.08487069606870
H            3.09289425854340       10.39068776539188        3.94461210220450
C            6.56735696248772        7.38883312526769       11.67075063806920
H            7.32084954397108        7.96612368184153       12.19442489774542
C            2.04841242459863        9.72795456000350        2.19737864583069
H            1.21021840504172       10.39593695375623        2.35838871879241
C           -1.69118259719974       11.82461731933527       11.43342300243752
C            3.30746938016244       11.70374676889713       14.99509508606898
H            4.04166278558646       12.34760279610913       14.50048605437804
H            2.31309652682358       12.03901214344535       14.68381943687477
C            0.97832226159153       14.85352425612112       14.35924062746418
H            0.06192043322952       14.68399452630383       14.91297278857473
C            4.54060247610169        7.31838356456100       10.35119752447224
C            5.54044482451681        8.03950072940459       11.00440116256349
H            5.50044591289039        9.12237290500947       11.00432536581892
C           -1.68185827237044       11.35366416062322        6.22875273424540
H           -1.15816326240296       12.18116466785564        5.74094352369471
H           -1.81653744061901       11.62449066616009        7.28042158278312
C           -1.57741099738748        8.93840430781490        6.83673680082350
H           -1.70911359614148        9.19182637124640        7.89327989075890
H           -0.97822653897855        8.02502407310872        6.77946505901695
C            4.85732659409190       11.37092222114582       16.93282951921761
H            4.97388709224166       11.46680910468256       18.01626058392061
H            5.60786350017069       12.00934973809445       16.45495549696032
C            7.99814726686122       11.98359294909731       12.41350312911498
H            8.30729802341188       11.51888414428409       11.47191656097096
H            7.18248360375568       11.38092751105132       12.82464584350932
C           -3.77922540696517        9.99369016024171        6.28319065702713
H           -4.76219519117041        9.83790654897389        5.82924080695329
H           -3.93112375219357       10.25194678056699        7.33647969852405
C            4.22251853201537        8.05566231783566        1.77086249087075
H            5.07188535119818        7.40589302926862        1.59113930989823
C            4.88294429111868       13.29798593365308        0.55781063962588
C            3.52340787517860       10.25344860215471       14.57264689502928
C            4.92604813576223        9.80215220906094       14.98675079311373
H            5.67265578666703       10.43305636023484       14.49410386805691
H            5.09311799491985        8.77087168953551       14.66244310642100
C            8.02918410169666       15.78321502620907        7.55349810579363
H            7.68389813701242       14.75809810166828        7.63233901053825
C           -0.64887254288861        9.72420373768186        4.65101019274307
H           -0.02709852268182        8.82851538469762        4.56410066787099
H           -0.12656503993865       10.54635361709921        4.15258034538182
C            8.92212894622000        9.71413371330293        8.01508675666559
C           10.51637105589082       13.01137106014478        3.35159680201233
C            6.15912589675196       16.88525127316028        4.11138655517271
C           -0.25667900228228       16.78552000808355       10.62868336501898
H            0.21725352780007       17.30548423099808       11.45398378555370
C            2.40114830436391       10.93224279345325       17.19574116329476
H            2.48730835437096       11.01847713661732       18.28283962266450
H            1.39690453926468       11.26032706401020       16.90955993621563
C           11.79659032299495       11.59319041723828        1.12540933920122
H           10.93471481234037       11.41605667413708        0.47406262555491
H           12.67921981224516       11.16592890227515        0.64053227281494
C            7.05478912215983        9.50956757234860        1.65702136635789
H            6.18554014362879       10.09012977597449        1.36792316937932
C           11.56962624646333       10.91984420327995        2.48335071492177
H           11.42144086384386        9.84294827421655        2.33978416850219
C            7.39558162252092       16.78947466855497        3.46261544702814
H            8.22211520521593       16.28788034123493        3.95603813815085
C            0.47431634630928        7.48856636182590        9.68646874785702
H            0.43257981505114        7.71098835457661        8.62699053171375
C            0.54511017593027        6.94823297857531       12.40668926709169
H            0.57598750246904        6.74598897815111       13.47132268878751
C            5.59489962348443        7.38121588472693        4.86746910680998
H            5.68525131314200        6.59069590976423        4.11663617829757
H            6.45892046459936        7.29740306260858        5.53192978534984
C            4.51186047776718       16.87090034748705        6.50505579500789
H            4.60662047146756       17.96006320964917        6.47180262079876
H            3.61340444160233       16.59115791502589        5.94542590268418
C           -3.06351465832973        9.76313705167616       11.76686303395401
H           -3.05496375300844        8.66823405374246       11.70022616889844
C           -3.35509692894331       10.18736762973551       13.21046825268356
H           -2.59368157560918        9.77502777742997       13.88002523823019
H           -4.32761799416205        9.79712644002950       13.52438704947588
C            3.45163788564466       11.81838519704837       16.51732220360496
H            3.29737659233341       12.86285465900198       16.81462296242443
C            2.61821383178309        9.47629165453411       16.76835861773567
H            1.86657326866549        8.83714569313483       17.24696355356346
C            3.31963326459567       15.25321167357121       12.92756546056190
H            4.24462183612074       15.38068535044620       12.37502176922912
C           -0.19617961798892       15.13659081638127        8.88264674816053
H            0.33230204569078       14.35945454037497        8.34265655130373
C            7.57443992739750       17.32499013729129        2.19805272835488
H            8.53933788905719       17.24381279920491        1.71064652485658
C           -1.49254225457713       15.46639165636577        8.51991967847039
H           -1.97493116908122       14.94204535014660        7.70296996429433
C            3.08184017489210       16.81659506079200       10.12289288217070
H            2.59504288506711       17.64390842866705       10.64758638793592
H            4.08091661737278       16.70806961257669       10.55240018443178
C            2.06631450462571        8.88356410100919        1.09673900108832
H            1.23810054163494        8.88377258871804        0.39763162466366
C            0.29590846842560       13.94918941235555        3.27456768032447
H           -0.02532461478029       13.07925362126774        3.85541817602514
H            1.07567230972912       13.61389412438024        2.58354249528024
C            3.15049760278112        8.03974083978661        0.89294046963013
H            3.16651021269370        7.37327372557958        0.03814667300984
C           -3.04688656013094       11.13416462802873        5.56762260342822
H           -3.63468512528030       12.05696935769992        5.64652082742237
C            5.06753349072978        9.91278581921482       16.50995793435544
H            6.07307166357909        9.58668523483595       16.80197672169938
C           -0.65332233067523        6.84848197937467       11.71246635586751
H           -1.56083692912626        6.56234031485860       12.23127155288742
C            7.50927071666053       13.40713996187171       12.15181249446410
C            2.18951424557667       14.95488486493455       15.02919614827805
H            2.22166691109636       14.87994538465900       16.10989154685485
C           -1.69068616297148       10.30047192284051       11.34743733500241
H           -0.91092982627639        9.89104269539495       11.99738042229457
H           -1.46357038926037        9.98627222973636       10.32379162680630
C            0.85875857749380       15.01753771094263        4.20938901299362
C           10.31769113365558       11.51232321835553        3.14051937165725
H            9.44106923498082       11.33942907733345        2.50825071837677
H           10.13286387831507       11.02188630567087        4.10190344903490
C            4.99453710538166       14.79752361436608        0.82180220263134
H            5.98745102680552       15.03047552142140        1.21934591065518
H            4.25918431603099       15.09807552219051        1.57528973953113
C           -0.68485822559366        7.11856131524878       10.35061945776542
H           -1.61694320224634        7.04414596368625        9.80193800875443
C           -2.84781541826273       10.77693146150128        4.09031951578584
H           -2.33570472981345       11.59608656650542        3.57518530872438
H           -3.81865192496909       10.63083116796463        3.60786368189105
C           -1.54887108094343       17.12338077827167       10.25829248308280
H           -2.07428748261332       17.90451629085332       10.79572262565647
C            6.62166818120032        6.00203915293401       11.67024686474040
H            7.42405252629074        5.48924258074811       12.18780964498534
C           -2.01394426159206        9.49501641201638        3.98970499679117
H           -1.86245797029875        9.23655727972147        2.93460016999170
C           -2.94360220979394        8.71347669624612        6.17556775940918
H           -3.45967377573205        7.89357359690649        6.68955878275915
C            7.37606449866036       16.66150522715512        6.68753123702440
C           -1.97920919554278       12.25364893182898       12.87314277032390
H           -1.20119108494531       11.86235586496201       13.53579865470143
H           -1.96316491314304       13.34520804666555       12.94324928310775
C            9.17351119128773       12.01292410814053       13.39601289650300
H            9.51603580875269       10.98636885250010       13.57544415422270
C            8.35329716603741        8.77627562991484        9.07845751018362
H            7.52769122453684        8.19405574437620        8.65752374193347
H            7.95514950493577        9.36701932380307        9.90911838136437
C            8.20552901794040        8.13074687505688        3.25106341937585
H            8.25326832932074        7.62532143574703        4.20844808281968
C           11.72860810305737       13.24551821359298        4.25611942538546
H           11.85808281343985       14.31776714391363        4.42792363845853
H           11.55751338688956       12.76809331127270        5.22587639214736
C            3.36167212294371       15.14535309373987       14.30842188449846
H            4.31297535451056       15.21015371289172       14.82415416093810
C            3.20574524029880       17.16779700968623        8.63460959369187
H            2.26398426631605       16.96405197766391        8.11435816479984
H            3.40122889352301       18.24183942271196        8.54921106819068
C           10.74024991219371       13.68927400811833        1.99823060008891
H            9.86592835294303       13.52880101798250        1.35971944874186
H           10.85917350323279       14.76725595856566        2.13996786182549
C            9.45884332356364        8.89556238861894        6.84152228634444
H            8.64605308027910        8.30950800040412        6.40132822291237
H            9.84448838425389        9.56727519484500        6.06801387534831
C            4.36976040159628        7.81767054025924        7.05723497739644
H            4.47969404488647        8.90126814668625        6.94660397778049
H            5.24624021053752        7.45323773698239        7.60373109313009
C            5.64130063172429        5.27187852190057       11.01003935792887
H            5.68083671066300        4.18855973880390       11.00865686975719
C            4.34487288914467       16.40604347700251        7.95461098111598
H            4.13517491753001       15.33176381410698        7.97009244058013
H            5.27473699374756       16.56755240485604        8.50968235249423
C            2.47480261592345        9.36426055285274       15.24417380889268
H            2.61353857313607        8.32642854097707       14.92752731925706
H            1.47364409684562        9.67942241719947       14.93472192151309
C            9.25307178111573        8.67790284154965        1.15408564103989
H           10.09249972060099        8.59356905162578        0.47398243716078
C            4.02082126298243        9.02014881016291       17.18637085118614
H            4.12387525188452        9.08439473048395       18.27355710820233
H            4.17638921392313        7.97711817875753       16.89398554027317
C            8.71483445935456       12.64123657301366       14.71680765403950
H            7.90391005596022       12.04630817934294       15.14995192981738
H            9.54263632161221       12.65371119999512       15.43177478300671
C           -2.74233310995041        8.34858167990396        4.70026186284821
H           -2.15564527642399        7.42818842440114        4.62071945777205
H           -3.71173051473211        8.17271035977218        4.22481309089454
C            7.05296467695313       14.03677110220299       13.46882367013339
H            6.22987066622143       13.44962183145473       13.88829524991301
H            6.68386469078815       15.04994342951192       13.28487610021822
C           10.04659019296808       10.55445987104925        8.61518753290708
H           10.43986733527146       11.24093037514764        7.85869789161514
H            9.65723213387807       11.15775740584361        9.44163659623178
C            5.10159114186272       17.51119629969158        3.44862020184434
H            4.12855741986776       17.58477189554237        3.91959530911792
C            7.83195912994625       17.97965997224520        6.59577322561275
H            7.33913201512683       18.67484483520564        5.92506392256688
C            5.28524046459127       18.05384523709725        2.18510944591966
H            4.45745532498021       18.54793288629146        1.68921640532668
C            9.11544194743221       16.20366342227679        8.30393145704804
H            9.61982566605860       15.50484161413543        8.96130434817784
C           -2.17346490442152       16.45876249545827        9.21100112119057
H           -3.18944571281452       16.71474226245573        8.93371619848740
C           12.78374473766306       11.15088174497265        3.38917635265129
H           12.62595243178457       10.66047833118078        4.35537859891738
H           13.67694582926711       10.71537626762076        2.93178052803652
C           -4.13882689742625       10.32594496804925       10.83094557173673
H           -5.12053114104309        9.93367961074102       11.11197820471734
H           -3.93428804242021       10.01625951275462        9.80048752736122
C            9.28577791810050        8.03865130867006        2.38619199481219
H           10.15539159351083        7.45971966580193        2.67577626819158
C           -3.35412919777590       11.71787282138129       13.29577496594930
H           -3.55781694445695       12.02815881523646       14.32766316653327
C            6.52054478612701       17.96531271085850        1.55787111301309
H            6.66190135227946       18.39249454658573        0.57197959511205
C           11.99302894415076       13.09863399719336        1.33694742851502
H           12.15171367079627       13.58793700072812        0.36848721588069
C           12.98024558565953       12.65717535731491        3.59257379213405
H           13.84636802827358       12.83062499274704        4.24237778717623
C            8.13829966478966        9.42576206736482        0.79798109839330
H            8.10791648245992        9.93929879579388       -0.15629796110787
C           -0.22963793327179       15.46270513314982        5.18613983213212
H           -0.55912597557360       14.60048836926519        5.77365999480369
H            0.17422982495759       16.20668599795876        5.87916269455966
C           13.20973342212387       13.33780836637569        2.23833928875906
H           14.10835998039627       12.93116783298847        1.76521604903626
H           13.36130838584875       14.41189879442627        2.38256662632361
C           10.31696084347743       12.83865868025815       12.79563611875574
H           11.16704387743352       12.85449843021721       13.48391742331308
H           10.65081524498770       12.38352725513339       11.85742431132886
C            9.82556187628007       14.26762133031041       12.53798559871152
H           10.63820454349541       14.86323424947556       12.10471152627201
C            9.46475280002677        7.84514944463058        9.57835939828701
H            9.05334610824348        7.17159083612191       10.34019321169734
C            8.22911252574158       14.07087900756443       14.45321080663517
H            7.89621558377247       14.52507776254663       15.39429621991294
C            8.64914003074276       14.23254504655382       11.55371336922650
H            8.96512626419400       13.78156746846410       10.60772847537128
H            8.29903828211034       15.24707706905521       11.34266830380663
C           10.57273743867049        7.96616234005227        7.33987913701241
H           10.95754778508985        7.38095378842692        6.49587520057648
C           10.00653125747947        7.02032458025230        8.40546037395755
H           10.79092170467956        6.34387710571027        8.75736984712060
H            9.20399022110826        6.41218759086180        7.97608662320415
C           -2.76522517287996       12.39062560585031       10.50217121623912
H           -2.54825905837715       12.09267208221087        9.47156046852986
H           -2.75192441356675       13.48384552714877       10.54310517626407
C            9.56006720097258       17.51439283070682        8.20400163457068
H           10.41169288285308       17.84497103537183        8.78727604742809
C           -0.88785821074177       14.52526741839785        2.48969516334734
H           -1.28682527261007       13.75071155673194        1.82338631277175
C           -4.13910172895160       11.85592518026570       10.92504529688424
H           -4.90545158111104       12.26510364320605       10.25567634559789
C            5.80894912405887       15.15455267432766       -1.51502435722063
H            5.65505687746322       15.70777121225612       -2.44611504061291
H            6.80848500600214       15.39630761095088       -1.13991617513292
C            5.93613326117949       12.88142952324788       -0.46994594423699
H            6.93549790921387       13.10007889147595       -0.08085497694096
H            5.87323806930395       11.80387191937826       -0.64771499314549
C           11.15888998718134        9.62561032922088        9.11737240612477
H           11.96502054509910       10.23057103432890        9.54964666745711
C            1.33439147880682       16.21472926595918        3.38419475573915
H            2.12258984058894       15.89430158962558        2.69556024807424
H            1.75712172662959       16.97495782609562        4.04804344807486
C            5.69822957852064       13.64839010021969       -1.77790377370906
H            6.45438617655594       13.34724951352771       -2.51283044707852
C            0.15126118943470       16.79553231840612        2.59942012052695
H            0.49726583119367       17.65418186117342        2.01138066028521
C           -1.41197362264514       16.04654962515945        4.40252613982438
H           -2.18739832932386       16.36732675237523        5.10894668758946
C            3.48631189645828       12.97158533615336        0.02532458375284
H            3.39640951987625       11.89398137062673       -0.14034918995578
H            2.73622457015013       13.25872123503371        0.76910160485324
C            4.30066011084594       13.32067773246544       -2.31612465155997
H            4.22067119771153       12.24795713743601       -2.51740857418416
H            4.12988391097831       13.85374227872900       -3.25601582776451
C           -4.43272106319853       12.28668518274446       12.36665270119157
H           -5.41717334172565       11.91971501470856       12.67144775980143
H           -4.44435213026991       13.37896659799009       12.43353963622816
C            3.35178343597035       15.24242547875181       -1.01366842958769
H            3.16473271406179       15.80056443380174       -1.93570283085310
H            2.59717977636628       15.54253189657571       -0.27874967148476
C            8.91475105942565       18.40067535863181        7.35108829383911
H            9.26044177695964       19.42493838726575        7.27035499728219
C           10.59295957112272        8.68494999100834       10.18791242046534
H           10.20872903013639        9.26866658977763       11.03084243130104
H           11.38412902936530        8.03002156243659       10.56444061057819
C            4.75285943208192       15.56491409201652       -0.48284159367500
H            4.83126837927166       16.64086271746595       -0.28526226559071
C           -1.98015706261407       14.97308128802262        3.46774619123844
H           -2.83475999998490       15.37319843618043        2.91440331289346
H           -2.32939357787046       14.11645249491258        4.05327482668017
C           11.70506804510518        8.80586253694473        7.94230854928061
H           12.11712593689394        9.47562043479462        7.18068657942138
H           12.51080120191339        8.15136092004718        8.28732583001845
C            9.37010146983685       14.90309173649742       13.85667618899381
H           10.20782370590309       14.94320692885022       14.55903453081482
H            9.02999293333007       15.92788920808081       13.67843944768059
C            3.24816176854920       13.73684529154237       -1.28211531179314
H            2.24674919028522       13.49895708632105       -1.66069585291552
C           -0.41188524586374       15.72318692009477        1.66009142561577
H            0.36168452528805       15.40342037938349        0.95409240345179
H           -1.24616435597059       16.13277650857725        1.08320173537082
C           -0.93690763716147       17.24945138323056        3.57949257303633
H           -0.54008970794669       18.02260276780238        4.24475278043621
H           -1.77869127131331       17.67851642664355        3.02814234428260
C            4.31335535734420        7.15563927908743        5.67932141845705
H            3.44432158910402        7.52893243680397        5.12792914250083
H            4.17674920002624        6.07747305100615        5.81391758720663
