334
 energy: -539.132334064861 gnorm: 0.000633435734 xtb: 6.5.1 (579679a)
Au           2.10436624434570       20.82698802443572        4.80350677947671
Au           3.85301397748598       20.75564227872304        2.58168838492915
Au           4.02864666914878       18.80131137614765        5.07895350233116
Au           5.24156107417997       22.43722220629450        4.52507925239193
Au           2.56534309456083       23.21399369880820        3.64314016221739
Au           0.32959256453206       21.46059365040733        2.92650802700994
Au           1.80971665353889       18.80991876175571        3.01689871564701
Au           3.89109580745807       21.18788343986898        6.80256339158869
Au           1.52742493907036       22.85153198347298        6.40026387291691
Au          -0.61412857858872       20.49599143731078        5.61719349291673
Au           1.19882093670095       18.47175344290299        5.85228688155640
Au           6.65369049951551       19.87094563102301        4.01755628292981
Au           7.22346512081137       19.83835963583959        1.07155881954644
S            6.30157503498838       17.64825979430117        4.92356714935643
S            7.63693502167707       21.91284705683423        3.12328030963108
S            5.06750168484912       20.48006334006029        0.36070872318872
P            2.70566048532159       25.40609479273528        2.68825854889732
P           -1.12587549391383       21.48413321696755        1.01898373853511
P            1.13267800782404       16.88655942079858        1.76134552369726
P            5.19888692597850       21.31891582192743        8.81876657013663
P            1.23287097850118       24.78797672159254        7.77796594742045
P           -2.69200130150644       21.41833037329420        6.47116401649084
P            1.21995984647763       16.54411739046066        7.26926492173703
P            9.35993575110986       18.91658377810430        1.27732422465648
C            1.55188878301857       26.63932785405957        3.36946818399267
C            1.95738705370942       27.60131764692477        4.29614533102599
H            3.00419348469303       27.68092035022810        4.56767996302112
C            1.03367530284159       28.46333438498320        4.86795979821685
H            1.36541003251745       29.20671548091081        5.58429740364418
C           -0.30802965779927       28.37891063742759        4.52402943979799
H           -1.02829331134249       29.05692228366295        4.96740560271945
C           -0.72659250279458       27.41417143699484        3.61539249439424
H           -1.77392795301819       27.34025210847073        3.34370740569946
C            0.19239422895616       26.54208115945323        3.05593361298335
H           -0.14438076865473       25.78202694506801        2.35894638147525
C            2.26109907594991       25.38712932755516        0.91987991832303
C            1.80717763451644       26.50934869987457        0.22073675743748
H            1.68623617315939       27.45649176620881        0.73402935213070
C            1.49490430334361       26.42149942664565       -1.12735742374857
H            1.15386023363938       27.30342504883026       -1.65744641565039
C            1.61932926679149       25.21151083097662       -1.79688791669831
H            1.37639509723620       25.14461655315360       -2.85088328090613
C            2.05186224872313       24.08621218674320       -1.10935246788324
H            2.14621779201444       23.13725802899177       -1.62307201022084
C            2.37084156236478       24.17429703577680        0.23705019838860
H            2.70925232125274       23.29312993666444        0.76981617518468
C            4.30981821636637       26.29428062098430        2.70961348426706
C            4.51089576629524       27.51980884125893        2.06679328675768
H            3.69253990405916       28.00357223709770        1.54679236545793
C            5.75676546236421       28.13096590143383        2.09030770663865
H            5.89566492362997       29.08208589227899        1.58909338594008
C            6.82049566462268       27.53240230045444        2.75604333219435
H            7.79203283164088       28.01282989893757        2.76838485014173
C            6.63193704706546       26.31919196599850        3.40155813130125
H            7.45364290185258       25.84026766532816        3.92234800673032
C            5.38610260611718       25.71153821176839        3.37522427670995
H            5.24772057910992       24.75787836044486        3.87430595798521
C           -0.15218341658435       21.16749682124464       -0.48657746371948
C           -0.58906533934438       21.49656372455143       -1.77313073965023
H           -1.56590699318174       21.94613948602356       -1.91342716565723
C            0.22568365610539       21.26289677343379       -2.87085176893604
H           -0.12480088654558       21.52212312613833       -3.86366982540853
C            1.48912705630966       20.70913225097273       -2.70332293706074
H            2.12527722987302       20.53726665332317       -3.56393495525771
C            1.93437688868521       20.38058974671243       -1.42993828542616
H            2.92224128657103       19.95787458025725       -1.27876803350882
C            1.11586990532419       20.60562275969152       -0.33635542499803
H            1.46899713040064       20.35265194463698        0.65505950983326
C           -2.40209978697855       20.18344865113048        1.02565871859637
C           -2.59580887756331       19.28125214427623       -0.02040307926936
H           -1.99533798966245       19.36018754180540       -0.91949969260810
C           -3.55380955824168       18.28248014115980        0.08002617836269
H           -3.69175515203758       17.58580082511821       -0.73932770093989
C           -4.33744627616941       18.17855193373734        1.22058707527908
H           -5.08588108162408       17.39810856466857        1.29767814010554
C           -4.15420033624310       19.07228279548756        2.26820704931505
H           -4.76417853689627       18.99595312739302        3.16121416218810
C           -3.18492112944836       20.05752143084165        2.17749172536866
H           -3.02787271186371       20.73815661804321        3.00836217735060
C           -2.05075464443629       22.99346107300160        0.58283045563338
C           -3.44238224655719       23.09234800539902        0.58745376427421
H           -4.04822424039429       22.21678642266238        0.79153872363881
C           -4.06004758270573       24.30817339270713        0.32976384324237
H           -5.14262858921795       24.37077722475165        0.33472123273612
C           -3.30010931123869       25.43997176855550        0.06756719065284
H           -3.78687244173844       26.38757099672466       -0.13284775438818
C           -1.91290501630921       25.35410638470522        0.06479067618894
H           -1.31043029428796       26.23175290868366       -0.14180044530247
C           -1.29557659973802       24.14292544765084        0.32820738484573
H           -0.21364843312885       24.07557515321595        0.33134374847962
C            1.10571438941387       16.94871108917145       -0.05613090913877
C           -0.08058847695937       17.02998991045992       -0.78715344517075
H           -1.03411634183755       16.96094427584604       -0.27601793576627
C           -0.04968768269643       17.19208920530880       -2.16424410419822
H           -0.97975317111174       17.25265213134786       -2.71869397084462
C            1.16488653853404       17.27375634735874       -2.83115385174456
H            1.18655538245834       17.39765327926731       -3.90783924877506
C            2.35257615558814       17.20333265742665       -2.11372337567766
H            3.30458124540556       17.26998222995632       -2.62767611683501
C            2.32255958809503       17.05628206772400       -0.73683436844410
H            3.25143433606463       17.02172741648427       -0.17916433232089
C           -0.52774094966043       16.26885348182015        2.20880144788766
C           -1.02741040154058       15.05397606610519        1.73178904332988
H           -0.43490274194699       14.45879310968388        1.04549871199687
C           -2.27336364391673       14.59938516561058        2.13539253519291
H           -2.65241508007781       13.65796217027727        1.75368173701377
C           -3.03311347383724       15.34310764934994        3.03096995429007
H           -4.00320009200881       14.98105930898523        3.35226363471787
C           -2.54421516819956       16.54852965184149        3.51354207595560
H           -3.12814081056736       17.13366477566939        4.21483715747460
C           -1.30447376044079       17.00972109662218        3.09753634740952
H           -0.92833448001895       17.95506680602941        3.47267999450441
C            2.16007792663767       15.42974642067414        2.14521474238243
C            2.44577159778769       14.41084344379356        1.23445759630673
H            2.06840586635881       14.46737461852685        0.21989713483987
C            3.22179986409752       13.32668412995194        1.61628304846076
H            3.44139644221886       12.54492693603067        0.89791219658896
C            3.72252524725016       13.24352142264204        2.90824130629920
H            4.33418937379327       12.39782369872222        3.20091320474641
C            3.44848419131875       14.25349582029703        3.82055231073701
H            3.84345079856291       14.19989281272217        4.82875828736446
C            2.67426506549015       15.33656185578069        3.44016861362754
H            2.46703919376289       16.12677970163174        4.15326653326938
C            6.53005361618705       20.07828916909945        8.93539790580818
C            6.94599425774163       19.46067641632941        7.75781938180133
H            6.47065386324141       19.73067708791068        6.82389663776424
C            7.94732715795537       18.50358783993635        7.76982510755326
H            8.24009461231781       18.02904323665929        6.84076880562193
C            8.55267382422375       18.15163716344268        8.96754423753911
H            9.33597255169005       17.40221299811859        8.98285070587199
C            8.14721918100042       18.75924031881647       10.15019009476708
H            8.61646846468730       18.48610201045641       11.08882394506018
C            7.14166909848489       19.71360571257911       10.13735953060211
H            6.82819774348151       20.17562103667809       11.06710565433599
C            4.22632443434242       20.96470023332647       10.32163750872268
C            4.51375725835887       21.49508587891233       11.58061866730058
H            5.32781251187365       22.20155363277128       11.69731256954122
C            3.76107839849265       21.12747873176092       12.68626621793684
H            3.99827922423234       21.54198614988943       13.65980464241561
C            2.71058525534595       20.22949807709947       12.55047823895929
H            2.12672144386855       19.94032791485376       13.41699483275270
C            2.40451101164968       19.70991324223122       11.29931573745805
H            1.57776905058158       19.01752343672580       11.18590929393006
C            3.15639452473841       20.07683125481942       10.19466821302893
H            2.91675303263497       19.67150636328151        9.21719195798758
C            6.05339152528101       22.87949528137594        9.20251521635792
C            5.28448979740383       24.00683011392993        9.50739970911220
H            4.20762582241059       23.91173372060673        9.59878925627916
C            5.88588530244987       25.24067891129669        9.69538963946390
H            5.27648129228014       26.10530071279896        9.93562086113927
C            7.26319814219272       25.37140679368966        9.56687019630915
H            7.73150021886120       26.33885428129553        9.70870843960902
C            8.03622564796801       24.26175684578347        9.25448823451895
H            9.11165673166453       24.35359853712984        9.15472422662668
C            7.43525612049261       23.02623271828589        9.06919937208677
H            8.04689333042183       22.16594511632490        8.82400024645180
C            1.36522457734800       24.32768507078202        9.53559483770581
C            2.03126472896566       25.07809864747466       10.50595674040476
H            2.52154195047124       26.00545337554090       10.23108436177596
C            2.07159147683508       24.64134126271339       11.82245724431617
H            2.59612604819094       25.22885987700378       12.56763633342552
C            1.44135736753342       23.45937647835790       12.18656891100681
H            1.47154027614246       23.12315116700460       13.21664112246667
C            0.78172368405197       22.70208285026938       11.22734300089607
H            0.29544667459512       21.77346717290047       11.50445343511163
C            0.75482739194000       23.12841132670915        9.91038942492802
H            0.25421139736964       22.52982791965877        9.15698967678772
C           -0.27694331264179       25.81838462580732        7.76507256839220
C           -1.04641365824070       25.82743644623812        6.59974424358762
H           -0.72072377791083       25.25319605552460        5.73855835576647
C           -2.22216373874120       26.55995833565575        6.53688223175952
H           -2.81213926181121       26.55525431220871        5.62772201917860
C           -2.64866957654379       27.28901549747405        7.63806017128124
H           -3.57063980435512       27.85714397053060        7.58934597526772
C           -1.89492599366411       27.28260571199050        8.80409085459976
H           -2.22565095694972       27.84742649412662        9.66851458581492
C           -0.71912415937460       26.55007393531120        8.86997166672796
H           -0.14445792913374       26.54148940939664        9.78942692412352
C            2.57988147816355       25.98751028726894        7.52059276606776
C            3.77140583238508       25.49747253374561        6.98147073858243
H            3.86055798844340       24.44010941822908        6.76057172211998
C            4.83697371069922       26.34348748000201        6.72218989022417
H            5.75461251458217       25.94296791843612        6.30728544069284
C            4.72418788411912       27.70105385444390        6.99038958076464
H            5.55309695832944       28.36761998252797        6.78165676364403
C            3.54427773198965       28.20263563837765        7.52475104221422
H            3.45161860674378       29.26213315538411        7.73613068935753
C            2.47818173164144       27.35459169750926        7.78740514949783
H            1.55873273430964       27.76123366989283        8.19347979920420
C           -3.39829036105632       22.82848606286765        5.55647471214993
C           -2.69442658814102       23.29536796460641        4.44544032838058
H           -1.77422059844163       22.80135429752329        4.15349107483252
C           -3.14847964906992       24.38622038424954        3.72224958876505
H           -2.58298023555448       24.74179770490971        2.86941698137204
C           -4.32382014976060       25.02440941365565        4.09605931472546
H           -4.68587345254475       25.87277667577056        3.52646548018698
C           -5.03089514447602       24.57515969452696        5.20484293211132
H           -5.94414979848442       25.07675803024476        5.50497125820178
C           -4.56900914275833       23.49153000167127        5.93623019437157
H           -5.11472147314969       23.16218156405444        6.81349806428441
C           -3.87921780203167       20.05316881087120        6.26277914644893
C           -5.13458312064416       20.16208669942888        5.66676432570798
H           -5.48959275335363       21.12530191796613        5.31812587279118
C           -5.93707202468320       19.03966475449201        5.50878996568223
H           -6.91228565959528       19.13856061936766        5.04519402591255
C           -5.49904720553999       17.79657009409985        5.94618295773982
H           -6.12957980350938       16.92354530323427        5.82215928089591
C           -4.24602775443833       17.67396308783079        6.53420960997063
H           -3.89412916928648       16.70685084440899        6.87585106467462
C           -3.44130725973127       18.79227854844102        6.68163722359575
H           -2.45157882658366       18.69088649601391        7.11337652611625
C           -2.92910012286715       21.90870447692891        8.21310202866500
C           -2.53026755046570       23.19416941401968        8.59580268155923
H           -2.21473769349371       23.90102690971274        7.83673436269440
C           -2.53951693410751       23.57484223856809        9.92714799315379
H           -2.22921151357515       24.57729089097147       10.20109362032393
C           -2.93486830260878       22.67243038941506       10.90667951597409
H           -2.93544342507403       22.96616993794082       11.95004610040399
C           -3.32855459647162       21.39193279415115       10.54111677634777
H           -3.64445888094672       20.68410907435838       11.29963607118593
C           -3.32253268196791       21.01004770669920        9.20772360671253
H           -3.63500796543893       20.00699066119761        8.93980156726881
C            2.78151335892809       16.42786083049909        8.19776039367401
C            3.95643496432056       16.30703380646841        7.44804306884198
H            3.89357824274692       16.17844347790621        6.37368258755941
C            5.19833972880480       16.36878180183742        8.05488396854413
H            6.09359807717259       16.29277147947257        7.44723600679495
C            5.28902675720794       16.56089996097218        9.42762188420574
H            6.26009849383595       16.62750101291865        9.90491183980367
C            4.13206715463536       16.67866037446401       10.18455313877402
H            4.19701026097515       16.83377512621575       11.25590448261945
C            2.88582249483365       16.61173095702387        9.57670219383610
H            1.98998181767162       16.70815308937064       10.17955006656280
C            0.92829395001064       14.87101339157875        6.61556821453520
C           -0.10358119202404       14.72604565033655        5.68225132214541
H           -0.73268013930989       15.57867537684601        5.44749552123278
C           -0.31954226112192       13.51353287182623        5.04944552229777
H           -1.12259133027606       13.41679852486994        4.32722146494453
C            0.50300956708392       12.42915661683607        5.32722481944792
H            0.34406175294523       11.48330388223248        4.82194683241163
C            1.53295792389029       12.56197992292344        6.24848321335348
H            2.17806171648079       11.71818396213170        6.46675282602446
C            1.74621597173648       13.77350294196129        6.88965415181992
H            2.55527411505115       13.86807886752794        7.60499981599125
C           -0.04966164251515       16.80676000580833        8.54365447577179
C           -0.16396169396335       18.10808715832299        9.04463833448950
H            0.52405710851745       18.87058763996432        8.69667258615851
C           -1.14839412123037       18.43277607600430        9.96187672282987
H           -1.21712089267013       19.44472073900588       10.34547894339747
C           -2.05558834238651       17.46381726795508       10.37451324934555
H           -2.83602699263932       17.71734855835912       11.08309738698434
C           -1.96410663484724       16.17376734661478        9.87066685298571
H           -2.67475486292158       15.41758249186625       10.18556672115743
C           -0.96589447645710       15.84350232800583        8.96421878421204
H           -0.90196718387062       14.83234644254817        8.57787979569114
C            9.52651001900657       17.28108137528404        0.50018443532898
C           10.48570061789996       16.33620961943377        0.87494654176639
H           11.19549038145077       16.56546566004059        1.66174865282538
C           10.52928450023958       15.09728580148899        0.25448400860784
H           11.27293752109827       14.37038004953842        0.56158061072857
C            9.62457256921833       14.78483805780101       -0.75157932594232
H            9.65687289004093       13.81130899423937       -1.22727294706605
C            8.67336258144061       15.71784968286657       -1.14007009047535
H            7.95683798482268       15.47770552143485       -1.91661106836758
C            8.62235496783561       16.95209950941612       -0.51305271291774
H            7.86442688082660       17.67199653221621       -0.80199012268674
C            9.99297256863967       18.68455014347099        2.96671229092730
C           10.74328892370356       19.67188685864906        3.60986549181025
H           11.02228090205728       20.57489520559563        3.07943894319959
C           11.13740202289899       19.51007095952737        4.92926739745820
H           11.71499844448246       20.28831926480822        5.41472591211709
C           10.79233865000978       18.36080646521371        5.62665863801146
H           11.10634181036155       18.23430964871961        6.65634015351076
C           10.03769783571969       17.37664378632482        5.00142321613827
H            9.76154874012741       16.47596288843732        5.53795132885605
C            9.63013914130999       17.54249962636569        3.68754299091647
H            9.02673629776117       16.77588899382964        3.21435658890605
C           10.61187303083977       20.00088471867613        0.48505063662834
C           10.39415854884523       21.42850631556292        0.74988551857121
H            9.54233284940924       21.71732395380102        1.35439837254675
C           11.24838171763092       22.30177462827880        0.21770761321754
H           11.16857783510169       23.37264149456752        0.35401646665662
C           12.33246486779514       21.77178544686447       -0.60217776081277
H           13.01310922055301       22.50356824445936       -1.02976616965919
C           12.99775636311287       20.45035134336214       -0.27632508490847
H           14.07138278378284       20.35448893341153       -0.21134493580713
C           12.02116497669183       19.43728568503083        0.33597933103469
H           12.33985329961098       18.55912130807524        0.87823955940784
C            6.23357321614143       16.62443703342052        3.53102815777386
C            5.66364395300918       17.00849441376509        2.31252976370086
H            5.19147124131287       17.97813796852866        2.23076046335368
C            5.68827446849195       16.15982396304788        1.22797379450614
H            5.26312821804188       16.46566886840608        0.27871420956935
C            6.26119820229652       14.88670662353969        1.33234952130074
C            6.81004456375240       14.48610592877879        2.55560596206221
H            7.25279058225882       13.50132541498214        2.64863640094804
C            6.79572200667044       15.34475011681350        3.63653697834026
H            7.22405794243137       15.03879684657888        4.58402715611396
C            6.24983581773796       14.01538327649382        0.14962380605876
O            5.83025484144417       14.33557473097182       -0.93988313875874
O            6.75930772397037       12.78740451956087        0.36902068658916
H            6.70581872814897       12.28614235560761       -0.46021940753271
C            8.79545252120220       22.49463838408813        4.26358833576332
C            9.49810258826105       23.66936076590712        3.95538513936143
H            9.35489597102357       24.12660210930077        2.98288864135343
C           10.34713040969670       24.24521920460602        4.87663121658985
H           10.87462932704469       25.16004755264900        4.63237933340637
C           10.51489740013176       23.66543927340887        6.14108560693663
C            9.83780632401038       22.47532311484920        6.43935939732138
H            9.98356046261847       22.01842829519775        7.41218617689677
C            8.99695594304577       21.89818371137434        5.51426086192839
H            8.46770041278607       20.98404714261647        5.75583513616313
C           11.34144219524202       24.28256836261505        7.18479807706531
O           11.38405668572073       23.91431581967025        8.33848718932449
O           12.06407699428800       25.33832884525145        6.76166537375675
H           12.56709826296942       25.68024308122378        7.51771802525006
C            5.27117405556845       22.11490272836954       -0.22144893089062
C            5.70564972910819       23.16458895571607        0.58650689067533
H            5.99494154460484       22.96800507405877        1.61127995284936
C            5.77120651297269       24.45420666792075        0.09385381788237
H            6.12518633813984       25.24367037986692        0.74887845435505
C            5.39354417689150       24.73236674565400       -1.22184846448654
C            5.00067980239577       23.67130565727705       -2.04389273400486
H            4.72734734651953       23.88032802207992       -3.07239275355876
C            4.94166458923006       22.38106285235141       -1.55175394493973
H            4.62956575958624       21.56576037819933       -2.19343979809066
C            5.34855491226090       26.10391721893374       -1.80404910839303
O            5.14223772905708       26.30405264997872       -2.97132229305449
O            5.52152581989272       27.12394756337901       -0.94267815110601
H            5.63023473309521       26.84514517510849       -0.01977248114859
C           12.11723883783541       20.55979990804524       -1.48860904889229
H           12.38302487340233       20.56695560456770       -2.53515569898954
C           11.14528518109879       19.54560211479031       -0.87153830549888
H           10.65904237600158       18.76753643130960       -1.44117870629872
