289
 energy: -457.749568141590 gnorm: 0.000240437246 xtb: 6.5.1 (579679a)
Au           3.26415073497550       25.61209517185134        4.76201976209067
Au           3.81289518261246       26.74433658817389        7.44498754308943
Au           4.20505663872648       29.56578634879821        7.31486337627856
Au           5.36307318618178       27.72900229770313        5.11117704450644
Au           0.82759920016263       25.92181628675646        6.30272102251741
Au           2.56247077103332       28.20430236676365        5.43081257560023
Sb           3.54995169860023       27.05964567423404        0.39340210189909
Sb           4.51049267635637       23.41510528097304        4.13988078307518
Sb           4.30725517899814       24.87954450959889        9.21086846215069
Sb           0.56445863127746       28.62556036137854       10.40503694909843
Sb          -0.56244173182232       30.38337001275945        1.70832297703888
Sb           6.47286929578507       30.69510610858744        7.92146057861703
Au           3.62331806075012       27.80710092942068        2.87786975855207
Au           1.67253278917023       28.60368689788291        8.02635725500960
Au          -0.11426396691862       28.75873700927714        5.70889446446117
Au           1.36127807975639       29.67500547519274        3.38812850552492
Au           4.12001664409135       30.21655400990740        4.22567710128787
Au           0.67453631503631       26.58786649064452        3.74619384482913
Au           1.76540373424251       30.86089942862122        6.07849387780588
Sb          -2.62096924434592       28.74930296081928        6.39588161006133
Sb           4.74689116894160       32.62863309580280        3.46561131319351
Cl           7.42046502832580       28.29955484386513        6.33827880221734
Cl           1.14585752089572       25.47159377961588        8.73556494584515
Cl           0.59036609961393       27.36821472678566        1.34836419429525
Cl           2.70208537494702       33.09624273277125        5.62481771934137
C            3.16891054874110       28.62788682032033       -0.98717539292306
C            3.94979656177669       29.77041267213723       -0.83124488971302
H            4.70975661639781       29.80406822887365       -0.05741162020816
C            3.77292109278614       30.86407452360044       -1.66373845193084
H            4.39205119550787       31.74480706468861       -1.53463624664310
C            2.80819924409369       30.82174417768109       -2.66118822111090
H            2.66592543279005       31.67391859513313       -3.31585273866565
C            2.03064579865197       29.68486103416788       -2.82264933398329
H            1.27981864444165       29.64745750032006       -3.60346052843484
C            2.20352432343985       28.59200580196799       -1.98435723508762
H            1.58097419981721       27.71402706117251       -2.11210502694104
C            2.68268107992556       25.28846189219735       -0.41436778101796
C            2.79078664667472       24.97086189874821       -1.76215381129631
H            3.31763641569999       25.63143376216226       -2.44084822962955
C            2.22195246983255       23.80355076006789       -2.25051827857417
H            2.31073767099589       23.56299288760366       -3.30381119920907
C            1.53730003140418       22.95154506968044       -1.39587684459749
H            1.08632242693437       22.04407313286807       -1.78064219771115
C            1.42763466655692       23.26453624937348       -0.04817476787813
H            0.89170530016302       22.60501372213154        0.62506667861743
C            2.00474352948084       24.42694788779205        0.43914128348629
H            1.91696815790808       24.66604627413435        1.49411278945339
C            5.62444794730417       26.80617699051816       -0.07577120897364
C            6.52759126345607       26.87116987999938        0.98127192807170
H            6.15718057065453       27.00205050355286        1.99454789489359
C            7.89452348412526       26.77287324796745        0.76854109882835
H            8.57863461350790       26.82645218047024        1.60764407295656
C            8.37701308768587       26.60354785770800       -0.52208133268520
H            9.44384525736627       26.52713535371656       -0.69754640516062
C            7.48906642126050       26.53906646171403       -1.58711080836199
H            7.86131981143374       26.41179092092787       -2.59732429906872
C            6.12383233750209       26.64291966467894       -1.36447068251690
H            5.44416082880145       26.59964020285439       -2.20823644841601
C            5.11651559714569       23.05095305573113        2.13269951159730
C            6.28113409236849       23.63608556173200        1.64453299835686
H            6.90817458090395       24.23107798937460        2.29912313563230
C            6.65050748845047       23.45939390042346        0.31956096264377
H            7.56168661353465       23.91639239297670       -0.04917248698521
C            5.85373686768569       22.70559981991379       -0.52978456145250
H            6.13885603963001       22.57427692105352       -1.56720431456268
C            4.69396898701756       22.11662409413861       -0.04784637666753
H            4.06764452980422       21.52486130209026       -0.70566304918115
C            4.32527729286399       22.29005491152795        1.27768074411512
H            3.41404963075066       21.83024692397805        1.64308083336580
C            6.39158566746111       23.35011712212616        5.12792053994889
C            7.05598777108026       24.56022923480354        5.29538159525188
H            6.60984208205693       25.47781145307835        4.92271281538638
C            8.28056812094135       24.61602153495711        5.93979279795268
H            8.77745112909009       25.57092841488265        6.06466837337812
C            8.84952063268968       23.45005499670268        6.43098667173062
H            9.80064645201279       23.48787285905150        6.94927445358899
C            8.19681313932297       22.23680370559397        6.26584007910188
H            8.63866080834144       21.32399241914414        6.64889779866663
C            6.97355569087862       22.18378679706082        5.61252481698936
H            6.47272665739192       21.23017775097795        5.48907585378962
C            3.49272283048819       21.62533408329089        4.65126940719608
C            3.95184128950196       20.36320448536991        4.28897925461300
H            4.87955827240447       20.25705268405012        3.73768989103899
C            3.22210766476246       19.23344951664766        4.62699296541729
H            3.58815359580100       18.25303202317358        4.34449294146277
C            2.02561002538942       19.35830065416635        5.31895784739782
H            1.45403889409837       18.47428383588795        5.57709966180386
C            1.55980884589222       20.61507604022984        5.67835205626248
H            0.62684789187498       20.71854137759777        6.22022453529979
C            2.29273499896198       21.74373756675262        5.34560498684475
H            1.92802149824907       22.72508453481844        5.63287687365859
C            3.82765930416949       22.83279372298200        8.84227193806040
C            2.59051449745539       22.28878895302021        9.16842289657459
H            1.81921372528252       22.90736044372578        9.60862198243084
C            2.32967466412644       20.94758684166190        8.92969990087837
H            1.36404035104554       20.53357308235519        9.19707853032757
C            3.29859821127434       20.13980570860276        8.35251440606965
H            3.09447454720954       19.09124806785580        8.16838655278298
C            4.52765979611519       20.68045180838902        8.00470281093659
H            5.28977963212649       20.05764122274313        7.54974074206520
C            4.78869689272764       22.02077950766621        8.24712591235030
H            5.75602143562802       22.42820322456302        7.97923067344368
C            3.87061722958792       25.13254119911507       11.28679248015700
C            2.63917426579482       24.80828165514833       11.84379755055618
H            1.84236100009056       24.41635586084191       11.22524591426637
C            2.41750315038063       24.98375368358897       13.20220759964125
H            1.45591684300604       24.71736295974939       13.62590473651106
C            3.41898958345268       25.49487822234912       14.01442188309924
H            3.24225789810427       25.63218008817189       15.07501553277859
C            4.64827139606474       25.82732207668943       13.46331493230327
H            5.44011422457577       26.22272237421928       14.08943488155141
C            4.87020598272926       25.64891841350945       12.10627534415423
H            5.83499054284055       25.91258929507807       11.69007879356578
C            6.42776322376220       24.74649675407220        9.39544544957776
C            7.18085830970211       25.79343092918884        8.87426704354914
H            6.68269273802056       26.61106537364043        8.36435652268258
C            8.56221931721288       25.80893206933865        8.99150137431780
H            9.12835206147215       26.63599140051873        8.57914770960020
C            9.20963906865498       24.76572418714601        9.63660737516127
H           10.28946049451965       24.77174201291813        9.73241165259653
C            8.47045358865440       23.71483816900039       10.16280238754715
H            8.97162819362410       22.89761625226237       10.66925182647830
C            7.08865311400522       23.70727237877014       10.04672954506110
H            6.52297667543057       22.88425269073923       10.46977711743603
C           -0.15146046111451       27.36491348307427       11.97581698010882
C           -0.61731987957439       26.08458279427884       11.71084176812382
H           -0.60112539444724       25.69887103838851       10.70002727116143
C           -1.09783998092600       25.28919040878484       12.74137192269219
H           -1.45945822640390       24.29053355433998       12.52456615222986
C           -1.11209429156106       25.77118780202662       14.04254536071922
H           -1.48932101912421       25.15130378702356       14.84774088306423
C           -0.63583857784179       27.04641991801649       14.31218720713054
H           -0.63510310582058       27.42585588285399       15.32763298764410
C           -0.15355355741635       27.84019337356063       13.28257168546821
H            0.23037481724543       28.82831997193314       13.50902434051043
C           -0.79038797998367       30.27362789909226       10.42702425821121
C           -0.84026152523936       31.05951781531293        9.27947844211051
H           -0.19802970988213       30.82240780482901        8.43598984021953
C           -1.69614539799221       32.14704103561241        9.19530126418200
H           -1.71609800337395       32.75121218352600        8.29545067376366
C           -2.52322234426494       32.45540341780234       10.26613981608217
H           -3.19908734011201       33.30050070398990       10.20392529571788
C           -2.48035906594935       31.68016754809384       11.41636370116204
H           -3.12176628038599       31.91901479107475       12.25712677206076
C           -1.61848439095106       30.59573384260016       11.49584218613661
H           -1.60241113983707       29.99545224710535       12.39793781363790
C            2.18561849233078       29.54585281680261       11.43699756041251
C            3.02360860509874       28.78651021185114       12.24896142703300
H            2.78201027748535       27.75057983597966       12.45587674820532
C            4.16600530160382       29.34346964570367       12.80437322698956
H            4.80722393613468       28.73688393778979       13.43418313566099
C            4.48181104431018       30.67167230066782       12.55659556395460
H            5.37258619955706       31.11079542521071       12.99105677967408
C            3.64986164034711       31.43830390005030       11.75282759264534
H            3.88211541843597       32.48022400899383       11.56726841690367
C            2.51730273392197       30.87501571310871       11.18529989577432
H            1.88358452256429       31.48169860692116       10.54695801499555
C           -3.57772295794360       30.64164316598617        6.24788490616980
C           -2.77980026324702       31.71811679931985        5.87126628057596
H           -1.72854651567315       31.56220169998273        5.64858271746327
C           -3.31752265652930       32.99230801949663        5.77171486218858
H           -2.68563368688152       33.82112540196896        5.47412274629863
C           -4.66168676870531       33.19743017583421        6.04704044541020
H           -5.08580211364184       34.19168266908466        5.96725086990422
C           -5.46214296250065       32.12912641077888        6.42475666051033
H           -6.51264837202217       32.28517690507933        6.64189668694963
C           -4.92222833326783       30.85507647528459        6.52763656100621
H           -5.55790096932436       30.02879427347298        6.82472129484446
C           -3.11543208866585       28.15429162411246        8.37747833050078
C           -2.88831750658393       26.82782358318800        8.73804722375363
H           -2.44701182664831       26.13876433677158        8.02566863810454
C           -3.24269841406126       26.37426616677136        9.99902241797547
H           -3.08844247985395       25.33401325487077       10.25992935774993
C           -3.80310047474776       27.24915469557774       10.91977550228447
H           -4.07449441512999       26.89538532700366       11.90769428882609
C           -4.02072757425998       28.57331440428066       10.57035248122265
H           -4.46099520712961       29.26127865473017       11.28290593503351
C           -3.68406711121081       29.02323515012598        9.30155988786759
H           -3.86396100432140       30.05925211042817        9.03849466603798
C           -3.79352627569685       27.28578229180151        5.38809280192538
C           -3.13851583803933       26.40745562329837        4.53308820262629
H           -2.07829633520127       26.53371873437103        4.33539786906713
C           -3.82801401883923       25.37420437424803        3.91671172804443
H           -3.30303500642479       24.69579122168751        3.25419716564688
C           -5.18609499973022       25.21682477073754        4.15084781358809
H           -5.72989024953638       24.41185269388356        3.67021188168743
C           -5.84778510257952       26.09049295329877        5.00272273644484
H           -6.90874787937403       25.97001235276873        5.18945778629051
C           -5.15339423443131       27.11650585771666        5.62533101030526
H           -5.67910951827521       27.78529781078037        6.29746121860424
C           -1.03372119203116       32.37670628628921        2.31409715092663
C           -0.22365448431971       32.93325438080476        3.29804813585153
H            0.61853985235383       32.36610204410643        3.68017552622743
C           -0.45950060654051       34.20505073209431        3.79586236060623
H            0.19182928672662       34.61266104004825        4.56028495910859
C           -1.52403677334748       34.94618429430114        3.30252055807535
H           -1.71223437301141       35.94554072955357        3.67783806813946
C           -2.34599759523595       34.40393086213069        2.32346916342215
H           -3.18185359027196       34.97688890085213        1.93800061729379
C           -2.10570857630800       33.12797417348175        1.83573508846145
H           -2.76459536091046       32.71623619626436        1.07959213606198
C           -0.84352517509797       30.47911191672303       -0.41518149507035
C           -0.98417250580716       29.31375956251355       -1.15896815479742
H           -0.87648659184427       28.34517451959701       -0.68855084348338
C           -1.26102892798326       29.37801420841717       -2.51664330972920
H           -1.37992166252746       28.46096519995112       -3.08249725835536
C           -1.38370437509200       30.60878727299552       -3.14570442367485
H           -1.59914219450864       30.65875674274106       -4.20683425668541
C           -1.23180681034428       31.77465868566687       -2.41015816261138
H           -1.32490156253772       32.74149258439950       -2.89167799307031
C           -0.96813796021174       31.70960697146723       -1.04998817326171
H           -0.86864476526459       32.62980143927753       -0.48825202610081
C           -2.46942733807215       29.50868884724632        2.14697229850795
C           -3.41310009986868       30.22645279821365        2.87678560330817
H           -3.16058211861610       31.19437724248382        3.29093356568794
C           -4.69658607707541       29.73183482867232        3.06106095407082
H           -5.42141076062287       30.31607946097152        3.61709719364397
C           -5.05516351458190       28.51004257153101        2.51172545058571
H           -6.06176135261091       28.12881832990856        2.63991510072007
C           -4.11670854599669       27.77843014260836        1.79877517222738
H           -4.38495947986904       26.81884792769212        1.37167191630853
C           -2.83226423164030       28.27122665762547        1.62329208587969
H           -2.11494042300530       27.68121961642852        1.06799478117887
C            5.75638811009117       34.28436612984387        4.36217417119599
C            5.82585861649863       34.39170598321653        5.74382650135829
H            5.33064742362255       33.66198441672688        6.37078327423964
C            6.52424317036615       35.43493403990829        6.33152038920531
H            6.56931985534161       35.50769955974786        7.41235477376077
C            7.16170597461878       36.37551328774121        5.53633293255310
H            7.71160706320906       37.19068133162988        5.99259583415714
C            7.09533472014737       36.27061875833225        4.15445198757895
H            7.59092591672114       37.00265470477968        3.52691619533087
C            6.39588366701752       35.22663948054831        3.56711381821634
H            6.35606832760676       35.15598382658631        2.48679320172848
C            3.22057699270230       33.45819733307631        2.24068373109583
C            2.67923511342113       34.72428674968743        2.41555509512445
H            2.99543786570391       35.34132508775430        3.24851361212005
C            1.72512028989641       35.20262818920975        1.52761064776738
H            1.30422990914508       36.19098857412272        1.67300861156516
C            1.31814887760149       34.42522697433044        0.45355237277321
H            0.58881076969484       34.80939362132082       -0.25041849778839
C            1.85109266183843       33.15491770030570        0.27898214734086
H            1.56151908020959       32.54692042107552       -0.57055642564000
C            2.78677876219093       32.67110895655692        1.17859865190498
H            3.19949292568056       31.67803137111695        1.03559710081905
C            6.01140524731628       32.15321376579321        1.78978313129748
C            6.16489894089219       32.98172926222207        0.68114541876466
H            5.69826724873267       33.96033462672548        0.66654146702681
C            6.89388203003310       32.56713919021512       -0.42461637122390
H            7.00010236464223       33.22865667862747       -1.27701893007723
C            7.48087946252525       31.30987692842152       -0.44179944594707
H            8.04649327714609       30.98328941807292       -1.30695605639950
C            7.33279268510188       30.46874364188889        0.65143565381395
H            7.78327889242768       29.48250260811631        0.64905916944331
C            6.60056265166843       30.89182226190542        1.75110828808336
H            6.48061326576900       30.21757411756419        2.59421646715952
C            5.90463998678933       32.39713666967030        9.09075545685134
C            4.67820495415927       32.99618927871215        8.81495563354639
H            4.02458677381565       32.56096101326789        8.06607107988535
C            4.27163189670331       34.13868599256954        9.48763128976876
H            3.31709108401440       34.59439760348735        9.25068914906367
C            5.09048535186640       34.69137153113811       10.46309479792863
H            4.77951925694486       35.58529952964619       10.99157826273885
C            6.30477284189744       34.09100377691525       10.76546946679593
H            6.94227646493186       34.51096340578753       11.53538113544462
C            6.70816390473951       32.95258645133970       10.08245398191200
H            7.65630982189790       32.49004712630672       10.33481768972469
C            7.79880913597045       31.70804267986868        6.58773884270928
C            7.80637926851129       31.42225354505178        5.22900127223848
H            7.19653734266425       30.61634569138542        4.84054100611254
C            8.61414326523206       32.14494539127966        4.36365157491927
H            8.62350490961314       31.89998170354649        3.30798471791691
C            9.41214925596940       33.16885915028399        4.85178900728065
H           10.03807190890267       33.73949698745653        4.17544969858659
C            9.40855439562730       33.45800357026454        6.20838153013257
H           10.03030747695739       34.25582060675968        6.59840309711419
C            8.60429139468621       32.73075741819181        7.07308543334534
H            8.60613770769176       32.97458363203818        8.12877966660477
C            7.65202443921510       29.68792766720672        9.37370805999029
C            9.03162279605454       29.56515715953101        9.28585747093102
H            9.56719864600722       30.00486887043509        8.45245839041654
C            9.72952302303604       28.86871891374967       10.26263286468612
H           10.80716104149291       28.77618879615603       10.18998737500992
C            9.05080768572066       28.29070931136303       11.32599920997704
H            9.59718711281600       27.74329035268281       12.08556301452207
C            7.67099369952780       28.40907427035331       11.41372872839145
H            7.13582723708185       27.96116879074029       12.24359273177324
C            6.97369890733545       29.10230856420765       10.43647966697288
H            5.89389420136727       29.18783142413576       10.50604408478309
