252
 energy: -359.237880036172 gnorm: 0.000788692905 xtb: 6.5.1 (579679a)
Au          12.10197165130412        4.11038418514720       17.53116928853051
Au           9.97055852683573        4.74037588896010       15.38646400102718
Au          13.80050347421240        2.12782816845107       16.50144969542439
Au           8.97844994426691        3.92385533060764       18.06616290124347
Au          13.09624208853742        0.94243433052031       13.69936944665417
Au           7.50476391041544        3.25864666267056       14.70652590518667
Au          10.23424345171710        3.30199103208936       12.84215871950759
S           14.06722381351713       -0.12355780815824       15.56812946158517
S           10.53273981180532        5.39581020255603       19.01595260648845
S           11.99806225323246        1.78319852147995       11.77155245297910
S            7.24581518876279        2.71577777082102       16.99342782316772
P            9.12476894584344        6.97850717361859       15.70414240179582
S            7.80371798733547        3.82329873209527       12.45097698133023
C           12.02284766452930       -0.70494179009290       10.65545228080356
H           12.64373978957574       -0.26720046618347        9.86918686191358
H           12.68643778527369       -1.03149106586426       11.46308458672615
C           10.44404291809722        8.00229727599163       16.50124210395305
H           10.10594852666623        9.01051763894133       16.75144869647585
H           10.71477933206719        7.50515476474566       17.43814668307337
C            8.28320666283279        9.24918074856526       11.78040004144814
H            8.09688255620766        9.77770517952347       10.85239452674920
C            5.74351224284571        3.56881541256548       17.54041655300566
H            5.85171365794248        4.64435086628083       17.37389555874673
C            6.37776112331152        7.17897761207933       16.13442870307476
H            6.29365894198001        7.08292055343939       15.05731344280018
C           10.17111355551453       -0.24843343720505       12.27728071147572
H            9.48030484142616        0.51519311193850       12.64584674671446
H           10.79012761300596       -0.56435952645337       13.12356281107638
C           11.06133070011635        0.35039688687119       11.19346082476292
H           10.43343216283458        0.71779802529226       10.37405854172400
C           10.94733137161161        4.72866606501576       20.64889556181091
H           11.13063127474110        3.65333164583504       20.56514296528693
C           16.04285563980631       -1.48921776899661       14.28368808745544
H           15.62860745133210       -2.38742380516614       14.75249222166683
H           15.50749276225446       -1.32291480239637       13.34474979113061
C            8.76248234369416        7.89444002762804       14.17345583193362
C            8.95752704490324        7.26138718723650       12.94559571891811
H            9.29229451519522        6.23078281468389       12.92289910275998
C           12.21743363062387        5.40799356525843       21.14918619054179
H           13.03009413751573        5.22444075724193       20.43956451133163
H           12.06323596201071        6.49036101530026       21.20700108004037
C           10.16400200190701        4.41337888809868       23.00307415277242
H            9.34869241128993        4.61230078902537       23.70477133026482
H           10.29349392496532        3.32774726167188       22.93647042527394
C            9.79584276033750        4.96298754188153       21.62111824719749
H            9.57899901207920        6.03441780270071       21.68479286775574
H            8.89798556536304        4.46067726579293       21.24931845733915
C            5.23075928370047        7.25172560068350       16.90913326743702
H            4.25690950013103        7.21636072805283       16.43396402115572
C           16.59277504841373       -0.47522881535478       16.51333695550094
H           16.19090579968798       -1.33942694261021       17.05188335602482
H           16.44742700843445        0.40860971362818       17.14279483256177
C           15.83276258428928       -0.29055717615425       15.20371448293331
H           16.19653408911758        0.61176797739984       14.70491351915363
C           17.53666421533927       -1.68081679935620       14.00405091621569
H           17.67931905520099       -2.55661785073543       13.36436528996764
H           17.92069823245447       -0.80596615639154       13.46766938446960
C            7.64288463332745        7.23387274093147       16.72818983230480
C            8.08081028100545        9.88997158862153       12.99669797083219
H            7.73645226969472       10.91793026947449       13.01775963304135
C            5.32828795614465        7.36821689039183       18.29034741696185
H            4.43070228283760        7.43225120886393       18.89449853497850
C            9.38598255859170       -1.44410682409831       11.73718761729742
H            8.77873289202286       -1.87412501639485       12.53922458350022
H            8.70597332113500       -1.10807139343695       10.94625304152246
C           18.31391523243506       -1.86151419054218       15.30997960098499
H           19.38168139971620       -1.95817953075517       15.09174471780797
H           17.98719289149390       -2.78165940910299       15.80645142532627
C            4.25292567436190        3.93053948238833       19.53148884598310
H            4.31917407676833        5.01996019520815       19.43788595823477
H            4.11700658575113        3.69264659365881       20.59035017043882
C            8.31725480808852        9.21982369272364       14.18600036182989
H            8.15360155149411        9.72513606394486       15.13180361339094
C            5.55392703307756        3.29877660159514       19.03020665699260
H            5.53766377559751        2.21793565390926       19.20275889355224
H            6.40250025727590        3.71293455259233       19.58238695354014
C            7.72773956173389        7.32927051712847       18.11992208733768
H            8.69730044136820        7.34100067368894       18.60502594933264
C            6.57891124464353        7.40046429539781       18.89251279918801
H            6.66144746697360        7.47908780489047       19.97066265924049
C           18.08582123163152       -0.66912818672389       16.24045317202215
H           18.61424320436295       -0.82575038838781       17.18560514448526
H           18.48586611925425        0.23967838545072       15.77671289641418
C            5.24119240153511        1.07247803973080       10.76227964517934
H            4.14938921854537        1.01909477144349       10.80292540952292
H            5.63954253909179        0.14356986334996       11.18510671646120
C            7.70857614060929        2.52236239059941       10.07580225863660
H            8.80063400912803        2.57150244510699       10.04821216077423
H            7.32052741427317        3.46159718837003        9.66881552677610
C            4.55414913060901        3.05037846474662       16.73860204849891
H            4.70229929451260        3.28313880623198       15.68015999758307
H            4.49543352130159        1.96161857646717       16.83654777486170
C           11.45668123982375        5.05132992224954       23.51806881511927
H           11.29815880592055        6.12380683972509       23.67583785295611
H           11.72562419148224        4.60658635067764       24.48072924489485
C            8.72043725432554        7.93266216395053       11.75621665620720
H            8.87628658918811        7.42536687723844       10.81092599032189
C            7.22151596616505        1.34200848747748        9.23135182867226
H            7.52933297451665        1.48512104320358        8.19152997984675
H            7.68768848010266        0.41913641224183        9.59442768609167
C            7.24649663194207        2.36939577787344       11.52196362751849
H            7.69088868406658        1.46687357740805       11.95107004993826
C            5.72687570326551        2.25973232952892       11.59908989363170
H            5.42635876047537        2.12598229073176       12.64239852825865
H            5.27426146636013        3.18781166422847       11.23568881826423
C            3.05628138093549        3.41944241054180       18.72694856294404
H            2.93867364763271        2.34275502809930       18.88953247151240
H            2.14339471615874        3.91346364616049       19.07226247524397
C            3.25566379471138        3.69173290359226       17.23463554253647
H            2.41092421165865        3.28946758501304       16.66820412469777
H            3.29359722477426        4.77276279694791       17.05995618662509
C           10.33984728008894       -2.50387742664081       11.18303415380582
H           10.95537310379789       -2.90067780995164       11.99748153777186
H            9.76457524540144       -3.33328619822021       10.76121347011316
C           11.24479739400079       -1.90363727329330       10.10456687896374
H           10.63651405703580       -1.58249015186956        9.25186851467694
H           11.94795149975391       -2.66211067781451        9.74829404481639
C           12.59791980759280        4.84536179457453       22.51991228729117
H           12.81311612563958        3.77563508271595       22.41908162325346
H           13.50389262172732        5.33965507486414       22.88263057981705
C            5.69896385726915        1.21184543433191        9.30863618791746
H            5.37552864189158        0.33726194505701        8.73652919298706
H            5.23310386365848        2.09688391482443        8.86192199065685
C           11.66822685500610        8.05342764724571       15.57419669632060
H           11.61244041824628        8.93620510991360       14.93144758886280
H           11.67013199603705        7.17467063531045       14.91908466015807
P           15.51682517109155        6.97859123160466       16.24015173641083
C           14.19747388545895        8.00225745048356       15.44304462926586
H           14.53555756078477        9.01048106288406       15.19283582596482
H           13.92676240571846        7.50512183164499       14.50612949303646
C           16.35833414591951        9.24924522102993       20.16391403645850
H           16.54466976596165        9.77776838458763       21.09191535673391
C           18.26380145322997        7.17899121946534       15.80984740842382
H           18.34789794571349        7.08294009389007       16.88696460046534
C           15.87905675110691        7.89449090715410       17.77086950569269
C           15.68401563934085        7.26145502614214       18.99874295617256
H           15.34926580720407        6.23085729570094       19.02149275212547
C           19.41079626952499        7.25172600726176       15.03513810791494
H           20.38464498006289        7.21635984210328       15.51030690200372
C           16.99868464331398        7.23390202155151       15.21608370669201
C           16.56072287263537        9.89002702464179       18.94760990407626
H           16.90508735770667       10.91798182660433       18.92653784945390
C           19.31325872117655        7.36820881368629       13.65392274508299
H           20.21084093024158        7.43223637801120       13.04976888066129
C           16.32427369892058        9.21987390464455       17.75831345302306
H           16.48792280541150        9.72517685288778       16.81250379694325
C           16.91381216686214        7.32929360589932       13.82435277185701
H           15.94424705307071        7.34104182993849       13.33925523833212
C           18.06263501901578        7.40046810294039       13.05175812495128
H           17.98009059981428        7.47909628196347       11.97360997582997
C           15.92110239909155        7.93273124634387       20.18811153764985
H           15.76525831728864        7.42543112232791       21.13340012086448
C           12.97328185246404        8.05339615290724       16.37007810450794
H           13.02908737456572        8.93615678014633       17.01284867672934
H           12.97134876874450        7.17462400148469       17.02516779139962
Au          12.53840437091545        4.11016951819824       14.41323709078265
Au          14.67150287902077        4.74122615814484       16.55437376593165
Au          10.84107717348301        2.12896610979301       15.44259414160614
Au          15.66198513974169        3.92434116127446       13.88007047353071
Au          11.54546816742939        0.94226037483201       18.24498363850417
Au          17.13744457507904        3.25838905937202       17.23783950977226
Au          14.40742021060916        3.30182908533432       19.10287267704674
S           10.57426577003532       -0.12331192983747       16.37616055900957
S           14.10875000471042        5.39550417947974       12.92850941325054
S           12.64338614071795        1.78320145209724       20.17294014968599
S           17.39564215454336        2.71587489862290       14.95071710701885
S           16.83799488717941        3.82338397143279       19.49346244903387
C           12.61869590207663       -0.70498432794034       21.28882309872277
H           11.99780679587754       -0.26726137455192       22.07510081683127
H           11.95510460293005       -1.03152176171880       20.48118560466969
C           18.89805222680102        3.56880280400920       14.40385552575927
H           18.78987349989053        4.64434228435165       14.57035972004527
C           14.47040413181797       -0.24841425446628       19.66698332448127
H           15.16120407248723        0.51522591188399       19.29842511699163
H           13.85139052354031       -0.56434140421302       18.82070054913073
C           13.58019390444917        0.35037978429929       20.75083534142277
H           14.20810205588510        0.71776977081975       21.57023472479294
C           13.69418623784335        4.72867984578344       11.29540901108923
H           13.51087457070232        3.65334317831373       11.37907204030066
C            8.59866599563284       -1.48920182448533       17.66061957176159
H            9.01291920161079       -2.38741061326916       17.19182496032630
H            9.13401522080336       -1.32289587247979       18.59956481191328
C           12.42409234790147        5.40801219407712       10.79510043050755
H           11.61142682928377        5.22445044158234       11.50471299269627
H           12.57828293291852        6.49038039006989       10.73729142229905
C           14.47751709336868        4.41339072010700        8.94122365733324
H           15.29282463456935        4.61230373216969        8.23952132837425
H           14.34802726426144        3.32775878941203        9.00783686545596
C           14.84567103358864        4.96300774725914       10.32317932642070
H           15.06252248264354        6.03443603412240       10.25951401641257
H           15.74353142124162        4.46068684650651       10.69495395972560
C            8.04874889553846       -0.47522106145135       15.43096897943470
H            8.45062867579060       -1.33941518500917       14.89242361318006
H            8.19409398546678        0.40861535594091       14.80151028042865
C            8.80874909030182       -0.29053476245026       16.74059559782248
H            8.44494473993502        0.61177667022982       17.23939419132548
C            7.10485156988914       -1.68080057788791       17.94024363924367
H            6.96218323580673       -2.55659831919600       18.57993074277573
H            6.72080935445076       -0.80594918200061       18.47661899356761
C           15.25555805010054       -1.44409050861562       20.20705393607619
H           15.86279997529917       -1.87410147917532       19.40500700456903
H           15.93558119864479       -1.10806586269945       20.99798229962974
C            6.32760511489699       -1.86150074223179       16.63431207086219
H            5.25983722857538       -1.95816887693355       16.85253763507748
H            6.65433549722416       -2.78164295985425       16.13784063021094
C           20.38865380541907        3.93052331400365       12.41279081791502
H           20.32238145579548        5.01994318426518       12.50639298462480
H           20.52456630251077        3.69262537524367       11.35393026525167
C           19.08767652530183        3.29874127180480       12.91407012520591
H           19.10391460490496        2.21790056897512       12.74152334980911
H           18.23916390391193        3.71290764848260       12.36181465390252
C            6.55570216455922       -0.66911535255397       15.70384002549348
H            6.02728439356447       -0.82573464076415       14.75868576754567
H            6.15565919587864        0.23969375344608       16.16757739462954
C           19.40035853915116        1.07246764943302       21.18202071287980
H           20.49216145033809        1.01909235205895       21.14137555668543
H           19.00200931402121        0.14356245421526       20.75918717827767
C           16.93296204205770        2.52235070967208       21.86851090337655
H           15.84090282537390        2.57150049955149       21.89608279338911
H           17.32101423206766        3.46158190317618       22.27550333446617
C           20.08738085621825        3.05035264913263       15.20570314481047
H           19.93918429768300        3.28310727982318       16.26414227561778
H           20.14609103502093        1.96159391741609       15.10774089273763
C           13.18483903414949        5.05133382328149        8.42621835378697
H           13.34336533317523        6.12380793647258        8.26843639666957
H           12.91589476594545        4.60657857778091        7.46356311175141
C           17.42002342815247        1.34199080467105       22.71294769307425
H           17.11220160124145        1.48510125554990       23.75276797968651
H           16.95385407006545        0.41912019685544       22.34986440124548
C           17.39506910771267        2.36937703524156       20.42236345791531
H           16.95064352791326        1.46689295540703       19.99321006344499
C           18.91468275894228        2.25972152884462       20.34521184769473
H           19.21517702126177        2.12599266380630       19.30189265998157
H           19.36728891297155        3.18780255181854       20.70861996379145
C           21.58527837749205        3.41942565602877       13.21735011002598
H           21.70288888786052        2.34274028204279       13.05475595528612
H           22.49815813268764        3.91345794196772       12.87203628418529
C           21.38587015216767        3.69170589453724       14.70966414387807
H           22.23061033973066        3.28944375376753       15.27609502486102
H           21.34793653307831        4.77273664171178       14.88433955864352
C           14.30172189088185       -2.50388742883308       20.76120938925802
H           13.68619579450612       -2.90069211542474       19.94676492550719
H           14.87701001621169       -3.33329139164699       21.18301949160089
C           13.39677016539153       -1.90367160602992       21.83968791396084
H           14.00505300679905       -1.58253062210358       22.69238968442660
H           12.69362610205460       -2.66215760495740       22.19595128231054
C           12.04359985395014        4.84537581818442        9.42437552771426
H           11.82840136076223        3.77564905898806        9.52520959899316
H           11.13762758377700        5.33966615535998        9.06165123989109
C           18.94257738179506        1.21183807984079       22.63566171786928
H           19.26601571699509        0.33725766560200       23.20777028949483
H           19.40843210956221        2.09688030817368       23.08237521475322
