328
 energy: -460.427947089504 gnorm: 0.000731142718 xtb: 6.5.1 (579679a)
Au          15.81797823399009       12.40071703177808       18.74666632038880
Au          18.71320637192251       13.80036112535924       20.47699535438046
Au          16.69072920153169       10.94325700637380       21.77819560749311
Au          16.49413772887120        8.73812390261034       20.17809892230424
Au          14.01152830495496       10.52760562639243       20.41736327647178
Au          19.12224176490329        8.53138048084791       21.23399536622354
Au          15.02098587903506        9.99743362604272       23.88811480765029
Au          18.75435307199885       12.82971375598228       24.58579896174350
Au          18.83224341792002       10.04760360098872       23.80912240780555
Au          21.70395205675306        9.86284128916015       19.16745975135831
Au          18.25371009312187       10.90387460244141       19.55748967703157
Au          21.09134291585769        8.50068776824224       23.11088532530210
Au          18.20502153358516        5.84816230820401       20.74586249919500
Au          21.29730833922500       10.32862215882625       25.66298261372204
Au          20.47152154130608       10.90262127582751       21.67761456929478
Au          21.84136907730570        7.01450482492098       20.68730929262813
S           16.80642475325367       14.48422203775438       19.22938154804971
S           23.44179952817478        8.72241457579470       20.29831494248995
S           16.86680418001769        9.54093641606869       25.24641730181974
S           20.66312153574815       13.34237046452409       21.75407572026299
S           15.91723704227341        6.33634095167416       20.62005214252081
S           20.09454415938939       11.02183836688766       17.89589983120825
S           14.94238158981809       10.25750603431835       18.24914718041832
S           13.11547253676836       10.57022754538672       22.61649673974831
S           22.45982395306116        8.33333413671631       25.13862097524949
S           17.29512616498333       13.20005529662469       22.79601582098115
S           20.17964499245176       12.29734862190814       26.36285233013554
S           20.42885806819010        5.15085067921287       21.07918147331571
C           17.48772115926162       15.03938658031175       17.64700684415785
C           16.32341073118823       15.45234927052745       16.74373910256192
H           15.67961571817734       14.58644430080291       16.55943137769987
H           15.72148355532256       16.21727217757608       17.24253503882810
C           18.38125140644819       16.25087885906973       17.91835487476046
H           17.80696458316139       17.02679019238277       18.43247923743974
H           19.20625298177440       15.95531953797538       18.57347011159056
C           18.30064800950365       13.95160469289467       16.95010325478297
H           17.65977811024523       13.08525812243390       16.76322220179950
H           19.12095846571910       13.61924309697114       17.59179178830453
C           16.87386439033260       15.99059963755857       15.41604094376223
H           16.03574676317520       16.28801500202906       14.77366973088615
C           17.76804248953546       17.20638802759447       15.68702376509230
H           18.15339456940767       17.60290390703826       14.74260942028704
H           17.18604839230553       17.99651169294209       16.17167190986425
C           18.93297145815184       16.78723142292406       16.59168724022312
H           19.57212818157941       17.65582682241403       16.79266530138741
C           19.75617873686995       15.69376421319719       15.90116943840280
H           20.59213695928793       15.39596404840009       16.54243808487526
H           20.17063535558463       16.07370592075663       14.96233723509142
C           18.85600581773893       14.48450127722313       15.62590710768146
H           19.44073341805739       13.69406023174654       15.13850076925245
C           17.69176485406156       14.89723639990146       14.71826374156957
H           17.05648084500470       14.02987811789492       14.51151204071184
H           18.07481811028774       15.26981300065398       13.76325017367223
C           24.47427170123402        8.08798220406606       18.94824230640643
C           25.41114182322151        7.01909257432961       19.51490072755009
H           25.99559653779964        7.43299261224139       20.34037888508628
H           24.81998677677524        6.18625662725469       19.90771385722184
C           23.65163375440687        7.47704332314767       17.81632469372363
H           23.05106393344245        6.64865947196353       18.20230403409440
H           22.96082510013242        8.22380808146885       17.41550567235495
C           25.29207356697412        9.26069679449043       18.40403441531398
H           25.87057419760015        9.71613286396177       19.21272927913915
H           24.61448688367210       10.02216028190285       18.00616579624880
C           26.35107525024046        6.52362925321145       18.40802081322911
H           27.02440729138264        5.76371433013584       18.82307822054698
C           25.52566078845561        5.91152722143161       17.27130036034950
H           26.18857072755171        5.54289135829944       16.48264864353084
H           24.94650554431859        5.06254588421450       17.64800736885529
C           24.58158761957843        6.97815271169766       16.70572743564145
H           23.97575281244816        6.54464244855542       15.90007622521550
C           25.39801166051896        8.15507162338978       16.16011427149456
H           24.72589227850557        8.91249930278227       15.74432014073057
H           26.05717126796639        7.81162925445807       15.35709510441601
C           26.22902944813064        8.76120841606405       17.29713363970330
H           26.81444825582115        9.60576550514985       16.91360465682627
C           27.17494287126545        7.69971672961922       17.87058557501267
H           27.77535770267598        8.13301093358313       18.67655559753027
H           27.85887670823213        7.34969882590460       17.09138991285449
C           16.91538370794461        7.73619521318547       25.34146935519952
C           15.71008995615346        7.26029694669454       26.15631157707681
H           15.71217086252178        7.74446889389461       27.13678206453512
H           14.78666933894268        7.54643151494761       25.64258884868351
C           16.88200902015505        7.07416102053444       23.96709683712588
H           15.97184122062330        7.35978847329963       23.43172585650952
H           17.73214507593522        7.42056041551993       23.37348967212898
C           18.20714870157268        7.34464016720437       26.06158254885689
H           18.24716114237964        7.83074968479248       27.04027697619143
H           19.06621830704983        7.69249884693340       25.48015824798346
C           15.77096691268918        5.73504795427277       26.31477534259031
H           14.90701624115078        5.40109560267882       26.90260560626568
C           15.73713937120282        5.07414917956733       24.93209418636920
H           15.76317655195578        3.98526579587220       25.03652859101082
H           14.81111473631520        5.34107614925747       24.41234914773614
C           16.94425394683403        5.55292996532518       24.12082766554012
H           16.92140161882277        5.09446980558027       23.12393728145972
C           18.24440188373979        5.16674598832179       24.83173687942372
H           19.10277133475855        5.50597507752357       24.24224562431836
H           18.31064405835287        4.07889954778204       24.92821040706883
C           18.26942021025625        5.82112006814974       26.21741558813293
H           19.19727994428438        5.54998036014086       26.73542239022299
C           17.06522743034460        5.34368536621978       27.03778397794271
H           17.08876736585689        5.79908193972743       28.03265080451493
H           17.10681607377371        4.25738946580464       27.16329140087580
C           22.11028737652375       13.83532289910529       20.78498216078535
C           22.38824581599797       15.30837489165972       21.10035534255777
H           21.53136064316733       15.91588901012287       20.79496493653195
H           22.52209242770327       15.43726894695768       22.17747241071650
C           23.30257107230564       12.98223530114752       21.21647799773235
H           23.45381468960797       13.07317145654729       22.29538570264282
H           23.09553359771111       11.93038702919202       20.99753023392580
C           21.89217922185618       13.68683579036851       19.28225480680851
H           21.03801014161482       14.29448762007851       18.97058186011809
H           21.66254908683921       12.64713150240251       19.03982296331229
C           23.65018243923411       15.76054614778377       20.35333598217601
H           23.84861030618365       16.81345916865671       20.58883348310905
C           24.84362965147964       14.90438601665393       20.79308481798351
H           25.75004760106188       15.23401805483020       20.27606589006392
H           25.00859268310361       15.01965594787079       21.86937695058798
C           24.55962646949578       13.43386651008416       20.46620784898208
H           25.40984660134279       12.81646289001170       20.78242125695969
C           24.33804379084054       13.26872348839166       18.95909318770295
H           24.13498491923479       12.21772464540088       18.72759349831027
H           25.23751524567858       13.56632768044344       18.41156035958247
C           23.14838174972195       14.13214872013326       18.52697363484934
H           22.97933103314434       14.01372893512719       17.44941481547423
C           23.43457521506537       15.60451606957177       18.84347226568316
H           22.59177938803959       16.22397637127978       18.52038903129265
H           24.32521402834604       15.93792725265724       18.30200787798880
C           15.35766100704950        5.55505047557009       19.08975350638244
C           13.88400597331156        5.91967734150579       18.90405131732656
H           13.31484387429159        5.58549275128807       19.77534802972453
H           13.78211352743815        7.00579903504343       18.83161469473194
C           16.15329890984307        6.02709545399750       17.87570116578045
H           16.07067549316219        7.11454369139359       17.78549689440591
H           17.21149635253775        5.78466385321479       18.01301651830086
C           15.48993513722947        4.03701910622879       19.22922016743894
H           14.94091392325393        3.69840411900716       20.11242388348731
H           16.54327936010581        3.77423220523607       19.36898078661365
C           13.34084943593217        5.24691915778976       17.63750859351659
H           12.28570805765034        5.51875849308923       17.50943786070017
C           14.14295718873782        5.71642355135619       16.41903327151816
H           13.75336341231076        5.24711774956631       15.51047040691402
H           14.04763697662213        6.80041661974093       16.30361600501204
C           15.61660606781105        5.34560885956357       16.61143505246025
H           16.19581992162916        5.68346436618126       15.74356996330087
C           15.74762584211140        3.82543927847776       16.75006049248679
H           16.80077882105121        3.55368682519038       16.87320198948031
H           15.37809945181935        3.33475627772689       15.84446591680827
C           14.94343477585973        3.35686103226438       17.96750993641916
H           15.03903388918417        2.26930060293952       18.07417619434282
C           13.46675613758963        3.72571528486003       17.78117424608773
H           12.88540402401147        3.38382883459765       18.64315915930886
H           13.06936363012590        3.23187925851407       16.88912484039176
C           19.65924554868703        9.85242104314522       16.58640593823174
C           18.43772328932763       10.39824559233285       15.84479129563594
H           17.58987057947832       10.46644420959210       16.53286169827599
H           18.65359219958334       11.40307875955375       15.47247346111417
C           20.84329557691300        9.77618538994114       15.61914225405627
H           21.07745917260945       10.77819174475313       15.24828254571564
H           21.72465441483787        9.40329413754868       16.14872411102420
C           19.34224447265564        8.45664479638460       17.11987323943767
H           18.50284191169509        8.50979774698832       17.81942300345440
H           20.20387885203440        8.06349768912749       17.66849145470409
C           18.08952984798717        9.47230967795725       14.67317907803845
H           17.21330750314837        9.87187225620066       14.14740158996570
C           19.27639670564131        9.39329531600615       13.70667936795397
H           19.02779342045016        8.74077735041749       12.86404977784269
H           19.50013947991843       10.38799405634660       13.30869349341277
C           20.49803338540643        8.84345289313560       14.45223682071641
H           21.35335811883861        8.79071830396281       13.76736477778837
C           20.18792096558249        7.44323089993317       14.99388225495389
H           21.06141203745455        7.04566902868034       15.52128227683740
H           19.95569214243706        6.76411492031784       14.16784234098761
C           18.99515485593111        7.52710753430750       15.95245856355086
H           18.76990123260420        6.52700330194407       16.34247933622803
C           17.77071910688002        8.07473415650268       15.21176981351080
H           16.91864468177101        8.13255158476979       15.89557229323684
H           17.49993459147905        7.40613231048970       14.38891900921253
C           13.62705610100879       10.37686668929913       16.99998616814918
C           12.50059489697148        9.40463792368247       17.34489632821597
H           12.06373876630184        9.67550173392206       18.31119835756835
H           12.89962546771497        8.39137821308241       17.43284777256228
C           13.06408905000699       11.79353054363457       16.91373251816913
H           12.63244810355624       12.08018576078106       17.87709476415290
H           13.86929821682354       12.49805157761117       16.68461329535765
C           14.25474020521862        9.99057426279631       15.65958926340591
H           14.67543514817662        8.98317777649904       15.72811142845158
H           15.07007081582770       10.68019357871401       15.42256203890310
C           12.05385598557866        9.06314476436451       14.90346451945120
H           12.44898960875317        8.04387556991612       14.95832281853392
H           11.29158362453775        9.08588297668757       14.11867825447224
C           13.18266329467344       10.04289653405291       14.56335140990271
H           13.63530681388831        9.76335327858023       13.60411080046576
C           12.62029480016642       11.46619433470762       14.47103777329692
H           11.86617507030571       11.51886706232346       13.67995767816930
H           13.42199689377337       12.16784928739109       14.21999230171024
C           11.42961646544823        9.45458241097656       16.24792907362679
H           10.62597866328694        8.75117724427259       16.49814980569590
C           11.99333345322129       11.85033797715651       15.81637740092282
H           11.59442944120885       12.87033457216135       15.75737427311796
C           10.86075913455691       10.87513515395112       16.15747923310222
H           10.40282501403392       11.15465898947218       17.11143019127513
H           10.08620471501021       10.91878270887493       15.38584354581568
C           12.16434962701527        9.03002002815814       22.67988412139292
C           11.68624981523333        8.83283723242427       24.11976998123182
H           12.55341663351540        8.74131484333692       24.78104181058333
H           11.11033937395771        9.70511788239337       24.44145328662441
C           10.95589944212039        9.17172096039463       21.75277276009742
H           10.36951588144028       10.04903611695137       22.04013727406786
H           11.30063042518830        9.32102639832675       20.72468205322485
C           12.99150244247151        7.81999986208509       22.25149070258727
H           13.86863151124698        7.72117996556246       22.89761240246588
H           13.35447682360860        7.95900101525692       21.22941851975455
C           10.82692838867614        7.56521695087247       24.20525684159265
H           10.48632602418581        7.43096003037872       25.23919922869543
C            9.61268864155264        7.70802044372681       23.28014374943580
H            8.98777028387762        6.81202034373051       23.34452024466279
H            9.00650610007892        8.56478229961039       23.59041904344783
C           10.09540209525758        7.90423865099839       21.83830266692588
H            9.22979999602847        8.01216791641968       21.17312242193993
C           10.92712804911502        6.69177761848174       21.40470912187327
H           11.26432004795959        6.82358496094875       20.37172855866172
H           10.31662709371126        5.78461350554717       21.44615150103197
C           12.13721235364231        6.55189263854808       22.33536071298814
H           12.74445105036824        5.69192179084843       22.02617924106896
C           11.66195573298244        6.35264787261016       23.77835734811891
H           12.52623412567831        6.24301027163967       24.44151137456306
H           11.06269430775427        5.44015227078459       23.85248886177191
C           24.09711543407651        8.91166579541106       24.62550368294571
C           24.88098071272780        9.27034442490053       25.89104968107630
H           24.37614994325483       10.09051725545577       26.41093978643480
H           24.90339211465661        8.40944335923144       26.56506648595596
C           24.79491093039103        7.76070143651168       23.89640406671576
H           24.82195870492693        6.87685637843752       24.54002323762587
H           24.22909342414686        7.50388632150312       22.99594850134210
C           24.04391917886590       10.12656045465935       23.70103801323081
H           23.52061066217062       10.94703173584600       24.19910478413776
H           23.48398236428878        9.87800465776067       22.79398737567000
C           26.30756672609829        9.68799545432658       25.51287715108251
H           26.86411502690455        9.93654510742435       26.42501108383615
C           27.00587217271853        8.53272871178603       24.78547401796542
H           28.02837797520082        8.82174352257750       24.52323870969147
H           27.06057078272244        7.65849831740045       25.44169757892390
C           26.21952892943805        8.18533452780207       23.51586774061141
H           26.71365717210497        7.35697666770878       22.99269908133934
C           26.16358007207275        9.41036658475874       22.59642580501276
H           25.60191886642157        9.17031521104430       21.68823125560460
H           27.17495049946738        9.70739820809817       22.30247729185358
C           25.46613267200246       10.55900428046151       23.32959808313088
H           25.41582450259888       11.43586119812062       22.67236374775851
C           26.24894749869020       10.91523747354277       24.59703271300949
H           25.75820704663838       11.74417838325214       25.11735086341366
H           27.26116312754484       11.23635756801640       24.33272564868744
C           15.81901700647645       14.08829555792624       23.34650668480203
C           15.24748214664647       13.47348228868163       24.62045943111370
H           15.99178458104038       13.51905574096172       25.42125215350823
H           15.01404260955032       12.41772414225714       24.44724377974975
C           16.17965050725325       15.55204559964893       23.61082030610705
H           16.60857197412358       15.99630798611191       22.70806019347085
H           16.93085429422175       15.61009301867672       24.40420790677645
C           14.78784241962248       14.01901051432424       22.22050226955589
H           15.20683065480729       14.45491943736842       21.30842356514118
H           14.54483493862368       12.97357077729540       22.00991210069432
C           13.97656029701736       14.22429548486892       25.02933535912724
H           13.56717156806633       13.77097478872016       25.94039766510753
C           12.94286131826395       14.13288120985933       23.90082428238491
H           12.69783018492089       13.08293070930779       23.70371931678816
H           12.02232642967122       14.64627381668353       24.19473617548773
C           14.91255169144745       16.31462654483586       24.02534034344795
H           15.17266895383859       17.36316585506183       24.21583715132892
C           13.87384223142566       16.24113505380276       22.90006622903243
H           14.27586684302512       16.69694387961556       21.98983327036975
H           12.97512834454946       16.79584183045234       23.18668651373259
C           13.52068538435796       14.77334844032182       22.63398684685104
H           12.78495589570390       14.71301414389831       21.82253865833166
C           14.32814520760911       15.69242519455100       25.29899169018042
H           13.43181606183136       16.24123132689132       25.60375345306585
H           15.05589503091170       15.75616251542923       26.11403749306153
C           21.46593007209868       13.56904677929661       26.32348305084569
C           22.18112364104165       13.63748901460209       24.97706246939348
H           22.63953354230823       12.66963356592431       24.75555515358855
H           21.46191691769761       13.84854786224927       24.17920673325222
C           20.80526495450748       14.91765886541234       26.61598822693147
H           20.07346212214381       15.14144539335370       25.83370516128854
H           20.27213092599651       14.86997827764724       27.56970670742983
C           22.47953468290634       13.24392256777942       27.42255447343735
H           22.94537148551354       12.27574155160903       27.21396807137847
H           21.96886715341302       13.16965523731081       28.38674905907025
C           23.25580730273587       14.72860334400332       25.02019435057648
H           23.76809064639002       14.76752932082415       24.05042128828685
C           22.59488924747378       16.08136649665560       25.30641971828948
H           23.35171223452130       16.87159899903861       25.32303679630146
H           21.87671809424834       16.31898302667839       24.51526994825841
C           21.87789035552338       16.01347071208842       26.65990744064290
H           21.39874122033837       16.97756758092063       26.87029297378327
C           22.89015873376137       15.69237696671795       27.76576320481000
H           22.38368317431879       15.65572092096033       28.73529305508357
H           23.65189014673840       16.47669914236174       27.81295483332926
C           23.55100530327933       14.34087495695287       27.47015646804134
H           24.27284262862294       14.10453534242158       28.26162289616101
C           24.27269405885388       14.40659423242964       26.11982011817320
H           24.75556440572688       13.44676219837889       25.90950777289018
H           25.05091544618151       15.17543178925852       26.14722861334267
C           20.72513537228181        4.10999215674683       19.62932832688842
C           19.86041171963625        2.85492680888123       19.76378698198638
H           18.80398216588812        3.14002404986956       19.78055192953708
H           20.08576265573307        2.35024716956799       20.70730582652743
C           20.37852351333576        4.82518872122039       18.32515761638635
H           20.97429987397917        5.73790470144404       18.23274178698369
H           19.32472371744140        5.11993527031654       18.33773570008655
C           22.20180198340188        3.71121618773660       19.61717305970956
H           22.45822648830914        3.21489745771202       20.55720840138194
H           22.82195236134067        4.60875610291835       19.53399988125574
C           20.13077377269154        1.91808288272933       18.57936889216622
H           19.50865713936045        1.02056789814861       18.68198298632166
C           19.78262608402444        2.63605797052787       17.27087141341948
H           19.95718542321532        1.97060538286440       16.42006187337029
H           18.72350340451854        2.91233326056439       17.26988354960626
C           20.64736209381103        3.89413919149670       17.13803231240562
H           20.39600580436086        4.41679415919195       16.20670673183641
C           22.12783538611514        3.49983809143862       17.12266563728443
H           22.33172676963002        2.84571501182472       16.26953009079741
H           22.74842393203598        4.39472251848952       17.01535432615194
C           22.47230866296249        2.77834313717493       18.43065723755080
H           23.53332120685176        2.49996302460038       18.42704239022152
C           21.61060027474054        1.51791708069697       18.56772366730366
H           21.80634727877357        0.83926989432415       17.73195992868001
H           21.86264119513386        0.99325062404145       19.49442178866537
