338
 energy: -539.890626976063 gnorm: 0.000510275322 xtb: 6.5.1 (579679a)
Au           3.15864572520597        8.85199710376734        1.85250748055920
Au           2.47456819997765        6.78909992233927       -0.46021885899312
Au           0.93849947263172        9.45366663929701       -0.82109527779280
Au          -0.96500799647705        7.15972585807783        0.30553393650715
Au          -0.30559291228902        9.23125907808224        2.49809007426011
Au           1.36215482451063        6.55790318538703        2.89648839234526
Au           5.26421450221610        6.06697928714461        0.60217030233802
Au           5.40598528722455        9.00162043450490       -0.24287431358822
Au           3.51683306079350       10.03724493004739       -2.18858899720644
Au           1.32685685128554        6.46719672520098       -3.19367522057028
Au          -1.39827701515693        7.34800466642336       -2.71841768570448
Au          -1.93114058779585       10.14593441069575       -1.63679363650017
Au          -2.63202441379835       10.51291064263356        1.15159841141881
Au          -2.84200786383488        6.35280163828959        2.46952349302056
Au          -1.06805043154096        6.40500144842846        4.76967236828503
Au           0.39193380916240        8.99640718120305        5.48289637526302
Au           3.19217963408983        9.30955071977891        4.79739293521460
Au           4.08905291243664        5.38269146022720        3.16466624044988
S            0.79801928376544        5.62598462278969        0.77458190767638
S            1.41478213595220       10.39136603401377        1.31973362988653
S            5.01263924967989        7.44247236371681        2.52556917894430
S            4.16667414852339        7.79908864889011       -1.86987226371433
S            0.53716669882947        8.67479474573260       -3.08376321838795
S           -2.88763072530706        8.56876071544361       -0.13956459854413
S           -2.15563288187510        8.22936816950959        3.70446666047527
S            2.00984978543692        7.30187597134621        5.10756287572384
P            6.92621548823967       10.15797099406875        1.12164294876223
P            4.43148563688852       11.28284228624576        4.63389679268995
P           -3.66068421402919        4.48992437808970        1.32780490024600
P           -3.44156961558647        6.20203345116986       -2.76339081069131
P           -0.31152405655967        4.62265756697614        6.09299913388387
P            3.29926548850157        3.29752390558787        3.84266282763893
P           -1.38632436712483       11.71817629290170       -3.28570006391401
P            2.97510135982906       12.26687213095257       -2.63001913374682
P            2.10118008437643        4.28213989686327       -3.44297019495811
P            5.90784244788203        4.65916600058388       -1.16037144192743
P           -2.52336875045315       12.47143156545426        2.41448134643419
P           -1.14864161685354       10.60963800320645        6.21574382594423
C            7.40941001480828       11.81526249362602        0.55212172561563
C            8.11980068725851       12.71299816430399        1.35586833296907
H            8.41615307126854       12.42602956652991        2.35867143497340
C            8.45765918020675       13.96874052176591        0.87702473802367
H            9.00479920413224       14.65611991462915        1.51189575756284
C            8.10432138497292       14.34413422457163       -0.41257511477035
H            8.37424002130820       15.32515425909817       -0.78560817150791
C            7.40510356885568       13.45999930508575       -1.22201941600722
H            7.12627978245565       13.74627029690299       -2.22965095130884
C            7.05420134647821       12.20929295674445       -0.73915781357146
H            6.49699485016150       11.52442560121649       -1.36941309164793
C            8.49120144577889        9.25025089612034        1.29422924469363
C            8.50252087461422        8.05803915475215        2.02580405995464
H            7.60067968629226        7.73071822566103        2.53350268968959
C            9.65244073655686        7.28938423458229        2.10084730869793
H            9.64691736321219        6.36932148803334        2.67415328909189
C           10.80554195443581        7.69352719275458        1.44057325412452
H           11.70433909679987        7.09079899676850        1.49747695150682
C           10.80240291312816        8.87020714191642        0.70364173123447
H           11.69949762060458        9.19065224602634        0.18653366052812
C            9.65278259897709        9.64289102841353        0.62594540005618
H            9.65955945113139       10.55803479647658        0.04478224293271
C            6.41963094128724       10.42527696482042        2.88575100227559
H            6.09323397747192        9.45609983180710        3.27438114711545
H            7.26284463793630       10.75201596848820        3.49867667043239
C            5.27344758887460       11.43070848928169        2.98663712514438
H            4.52499522573401       11.21674235993273        2.21890786459891
H            5.64241887780087       12.44277904684763        2.80459756192636
C            3.43228288058387       12.80313426632072        4.68783656493202
C            3.70179922231345       13.86685283691478        5.55052578043836
H            4.55085328078730       13.81756606369226        6.22242171491696
C            2.89133660184233       14.99280307109301        5.55698148514456
H            3.11458925324485       15.81016475847566        6.23290831461283
C            1.80173490437337       15.07258537477657        4.70215130128903
H            1.16982202528914       15.95308039222639        4.70407675097526
C            1.52190806215781       14.01759932126516        3.84398711095104
H            0.67942298190643       14.08106667860649        3.16646650931223
C            2.32155957137145       12.88572100139495        3.84058465060009
H            2.08461676525159       12.06244244827036        3.17112938584020
C            5.78071942564912       11.53788553230354        5.81822568357427
C            6.76794186767010       12.51438175771593        5.64156782503846
H            6.73438601297826       13.17064920337568        4.77875255510531
C            7.79237128843859       12.64960339849805        6.56476392744234
H            8.55208334764798       13.40834698762775        6.41613204941386
C            7.84687281599116       11.81738295267455        7.67555723733062
H            8.65043926961103       11.92574092205703        8.39451066594038
C            6.87300356846467       10.84644685059017        7.86174013546553
H            6.91257661783223       10.19363464733969        8.72600160804725
C            5.84886573629571       10.70671585088759        6.93800820569036
H            5.09116466980276        9.94325962667359        7.07910841606191
C           -5.44008014650775        4.15461235815433        1.42039477126185
C           -6.10289246059828        3.30625209647274        0.52624910629534
H           -5.54910684958330        2.80547974330745       -0.26024745439549
C           -7.46855331287760        3.09930400892907        0.63893421562712
H           -7.97100144935464        2.44143102468345       -0.06084223077632
C           -8.19109003771583        3.73025989694016        1.64335615353832
H           -9.25888469955564        3.56578978196337        1.72762054289172
C           -7.54430780184721        4.57272452196429        2.53669412359492
H           -8.10420917830131        5.06871866329560        3.32103787860752
C           -6.17927855169034        4.78505327218463        2.42359538318661
H           -5.67415801495458        5.44919847019010        3.11702781534688
C           -2.84299817410920        2.92876381219044        1.78374514226074
C           -1.44500884913048        2.91713142521085        1.84619863498625
H           -0.88204259662508        3.81833088762437        1.61710997485364
C           -0.76960212541612        1.75727580859034        2.19132310000263
H            0.31326473954150        1.75336559576614        2.21507323296769
C           -1.47303647730685        0.59964621867579        2.49555844837597
H           -0.93996293417948       -0.30323198381628        2.76984302420444
C           -2.85955667077909        0.60562694967896        2.45012069185997
H           -3.41625797954187       -0.29285195069241        2.69014744982947
C           -3.54080911612802        1.76129790843121        2.09755285101541
H           -4.62421326083127        1.75300610576879        2.06681672015308
C           -3.32021461043146        4.59171900292199       -0.49340911154582
H           -2.25962681409213        4.83322968873810       -0.60741171107370
H           -3.48816330778098        3.63747446973225       -0.99828433919445
C           -4.17018261959767        5.68761232983446       -1.13759701410372
H           -4.18093215802189        6.57035317138444       -0.49199633817824
H           -5.20348101666304        5.35034515056475       -1.24629511256208
C           -4.69722335252564        7.28915119515567       -3.49651604597902
C           -4.97979077386400        7.22803195087228       -4.86374455144666
H           -4.54134021232983        6.44347418622319       -5.47047306017126
C           -5.81570236160589        8.16476830858723       -5.45128235334334
H           -6.02726513724602        8.10429792796951       -6.51270568619011
C           -6.37233318127993        9.18102845853455       -4.68680989793835
H           -7.01930539018086        9.91699145126702       -5.14976714644462
C           -6.09293180311842        9.25491605379426       -3.32866166631321
H           -6.52094991317217       10.04872454470744       -2.72698819297470
C           -5.25870502008647        8.32011608685143       -2.73724290010791
H           -5.02858428638794        8.39819047196713       -1.67998474533857
C           -3.50310435468012        4.67977543101809       -3.75501119235088
C           -2.37490179507227        4.30350465092176       -4.48541417190254
H           -1.48570009005402        4.92394172401029       -4.44788548980134
C           -2.38033217153288        3.15067507166216       -5.25492919346297
H           -1.49772212594575        2.87721335455813       -5.82162943504436
C           -3.51167380984981        2.34817810564245       -5.29305079180552
H           -3.51618382770976        1.44351459145627       -5.88970345837625
C           -4.63962765850008        2.70786819383282       -4.56652463676507
H           -5.52597756526722        2.08465674794909       -4.59618390543423
C           -4.63998891483074        3.86665987358822       -3.80706811747755
H           -5.53075979334254        4.14589401498994       -3.25514596928583
C           -1.29673528101810        3.09414987534058        5.98799320290064
C           -2.61503554291666        3.20506290293737        5.53951824240628
H           -2.99991632899541        4.17940063316783        5.25742810228432
C           -3.43270803680193        2.09047013862826        5.44842836421114
H           -4.45325986257586        2.19746742293241        5.09885229576627
C           -2.94040334285868        0.84011244719274        5.79646625851442
H           -3.57591750561256       -0.03452507607066        5.72255682801274
C           -1.62977296289644        0.71303516847768        6.23608574953771
H           -1.23963300664169       -0.26149654129828        6.50642506559241
C           -0.81359335020579        1.82950117085640        6.33545526730457
H            0.20401634316721        1.71062660225316        6.68941725283869
C           -0.30067571465222        5.02524016277760        7.86805042520510
C           -0.79024659169056        6.26692738328381        8.27661457551869
H           -1.17062529738795        6.96095447109631        7.53519766892760
C           -0.79760579290386        6.62182603058829        9.61619312604276
H           -1.18076907684917        7.59163719269193        9.91328668785635
C           -0.31858267051830        5.73564401720372       10.57021211094586
H           -0.32349533828425        6.00996148336501       11.61861567710058
C            0.16449416316137        4.49367754363686       10.17837982956669
H            0.53574519983105        3.79642952920764       10.92064475134098
C            0.17329095579796        4.13831142656782        8.83926048652384
H            0.54807756295042        3.16296975653252        8.54942825710033
C            1.42782499105785        4.07426420018231        5.76694777135574
H            2.04225513739849        4.98126019820662        5.77374929080170
H            1.81197147097648        3.41852136308810        6.55126162327299
C            1.53420751372893        3.38452646268568        4.40668758537848
H            0.98355687135727        3.96019567955839        3.65776489299467
H            1.07599144223013        2.39385421122855        4.45014243414053
C            3.19907816465517        2.08308468398558        2.49132959646056
C            2.53223272345249        2.46110617333610        1.32041207496440
H            2.08892558016855        3.45055576261937        1.24049585294324
C            2.42674786658495        1.57681724876261        0.25858942223972
H            1.88496621209218        1.87047342664104       -0.63217529640577
C            3.00069169079450        0.31493682859566        0.33652256097296
H            2.91958867809355       -0.37103709221640       -0.49862541995770
C            3.68053222357742       -0.06106846892129        1.48574118076909
H            4.13633544402868       -1.04218736696114        1.55242173659813
C            3.77998806599546        0.81570770417254        2.55603940529867
H            4.31387226923268        0.50948252517923        3.44823006036970
C            4.13830904989597        2.44944677137262        5.20810943042921
C            3.58740853705646        1.34059625326189        5.86091123690518
H            2.63087419422006        0.94219950767170        5.54052813379911
C            4.25832061909285        0.74502578618979        6.91689582091242
H            3.82098450314312       -0.11223795046961        7.41568657996178
C            5.48571995433107        1.24310827179703        7.33518670663828
H            6.00679357859693        0.77487747261918        8.16199080046097
C            6.04221086585077        2.34118207270476        6.69459737724020
H            6.99893289897185        2.73400955857528        7.01871807718562
C            5.37156642224723        2.94115720426324        5.64006779732305
H            5.80260531359625        3.80378714714823        5.14307679192811
C           -2.13202549880602       11.22107360921809       -4.86462697169072
C           -1.59202550410064       10.13897550598075       -5.56686609246744
H           -0.67627599636463        9.67341375345217       -5.21738993960943
C           -2.22524246578712        9.64791150134328       -6.69672041681072
H           -1.79477969723693        8.80892782039208       -7.23162210841942
C           -3.41025775138247       10.22252903444689       -7.13762545985077
H           -3.90764729791841        9.83437249411014       -8.01880019673768
C           -3.95851250149779       11.29243350723855       -6.44376939071751
H           -4.88503957536980       11.74241860631540       -6.78151553354650
C           -3.32845125625050       11.78666403846908       -5.31195612054706
H           -3.76825956656296       12.61739440748939       -4.77147486838018
C           -1.96293052842873       13.41862119212902       -3.00254579762052
C           -2.82095539454212       13.66663960128811       -1.92973009187501
H           -3.12513558916996       12.84409301783579       -1.29114662246597
C           -3.28561592727757       14.94691979434442       -1.67348128162711
H           -3.95609592220774       15.11985489885173       -0.83946961515132
C           -2.88542388673875       16.00341358128752       -2.47928325357073
H           -3.24200950356205       17.00654941537539       -2.27683297711311
C           -2.02733908970927       15.77225291290951       -3.54668308702497
H           -1.71424223930050       16.59476787410649       -4.17940310797052
C           -1.57281409032926       14.49041142010698       -3.81202446636589
H           -0.91507379896866       14.32000521726011       -4.65713356282514
C            0.41275314653230       11.92388928225727       -3.68421683095324
H            0.82004941905118       10.92456949068055       -3.86357583247380
H            0.56225575769117       12.50491986582796       -4.59701887639997
C            1.14874603928839       12.57605949715527       -2.51363024628709
H            0.80857653260759       12.13468532431898       -1.57261581878414
H            0.91644706214922       13.64277909336687       -2.47022546322667
C            3.62894822888722       13.44091347991256       -1.40161248666761
C            3.44157195472005       13.14103106844836       -0.04758070526419
H            2.91509320929388       12.23520622209958        0.24190539602757
C            3.91557511257117       13.99955612286424        0.93169376621723
H            3.74262179872461       13.77024574961174        1.97605789021142
C            4.59891656051658       15.15592457509691        0.58033050703326
H            4.97195477715307       15.82125124501113        1.35023050799107
C            4.80287970183262       15.45375075832889       -0.75915333610211
H            5.33844952014366       16.35264427965389       -1.04190680637467
C            4.32132815391255       14.60355762969856       -1.74398557455154
H            4.48589280804984       14.84871326030042       -2.78686613414107
C            3.42295139003914       12.94954690604540       -4.24898617434632
C            4.33761417070279       12.24536245917341       -5.03477180602098
H            4.76003473722434       11.32022561879343       -4.65708917190715
C            4.70405232374685       12.71466792369651       -6.28653231860538
H            5.41552737493568       12.15714955588326       -6.88457633695646
C            4.15608373246203       13.89335919248393       -6.77273555620295
H            4.43829918276071       14.26001822619582       -7.75266539933286
C            3.24296268079155       14.60226953643694       -6.00277383789954
H            2.81244999487853       15.52271336016706       -6.38011643238031
C            2.87783678414241       14.13758441755556       -4.74935815746219
H            2.16574223544011       14.70101071889499       -4.15640571308628
C            0.84450927830261        3.02335280287632       -3.05842333486777
C            0.53133091606938        1.96537549222093       -3.91344911088553
H            1.06235186644225        1.85158569477512       -4.85144090029796
C           -0.45682029675149        1.05244859201314       -3.57391415661990
H           -0.68703305485544        0.23597466140639       -4.24856727539479
C           -1.14575420351624        1.18326945251430       -2.37695377453754
H           -1.91613514804107        0.46934495079229       -2.10973404887216
C           -0.84588153528530        2.23545023065898       -1.52213707682846
H           -1.37361925914229        2.33511247830216       -0.58166650390175
C            0.13343353514883        3.15580328049667       -1.86020985435454
H            0.35070300187707        3.98044207314812       -1.18606712446583
C            2.82495052006611        3.78885103007583       -5.03075695003586
C            2.65730936687782        4.63367989780791       -6.12961360960797
H            2.09094496503826        5.55146252607375       -6.01201616034580
C            3.20899990201069        4.31191098962260       -7.36000624114487
H            3.07018860603733        4.97755910971152       -8.20399626662218
C            3.94073542709791        3.14199201691340       -7.50717075780037
H            4.37565191173490        2.89040567068768       -8.46733273525946
C            4.11729301929113        2.29366711046142       -6.42151345213212
H            4.68891532499106        1.37948301694162       -6.53320775987501
C            3.56409579997888        2.61107124509692       -5.19136423191711
H            3.70626375502459        1.94047187881613       -4.35089371918768
C            3.43877226708470        3.88875876806007       -2.21903620790162
H            3.09805488262789        4.24149533740653       -1.24183050967914
H            3.60450139422167        2.81265682466565       -2.13144434570650
C            4.74084414179246        4.59513765925129       -2.59766432447078
H            4.53340213317542        5.63616983135856       -2.86881382903820
H            5.18640570054660        4.11723985509082       -3.47280037362031
C            6.18726654641397        2.91519556183449       -0.71579729721366
C            6.48719916663068        2.63166768458594        0.61889105116880
H            6.52070013410651        3.44215333882217        1.33939637276112
C            6.74010026874601        1.33373417590965        1.03188010781991
H            6.97335068362551        1.13431427262448        2.07156748224540
C            6.68723773495582        0.29251672504386        0.11520214014575
H            6.88255728516893       -0.72426773265859        0.43508361190454
C            6.37991129343290        0.55762290453452       -1.21233359986679
H            6.33356628154819       -0.25226563491541       -1.93132172833453
C            6.13497075513013        1.85762240806486       -1.62792776428119
H            5.90599038479673        2.04464610868843       -2.67074685381836
C            7.47716461286977        5.17307547226258       -1.92671102954827
C            8.15274251330768        6.27638563780530       -1.40311482638628
H            7.73811811167440        6.80024721426693       -0.54900740395728
C            9.34613708037344        6.70839920204733       -1.95965581855242
H            9.85494997209748        7.56868590509704       -1.53937847235821
C            9.88586602194639        6.03783928027041       -3.04774636002357
H           10.81929759160758        6.37273048624483       -3.48476477703498
C            9.22842501660386        4.93298803706077       -3.57360204937191
H            9.64883961345964        4.40303427207285       -4.42056193726979
C            8.03455942478033        4.50127365181167       -3.01878947903593
H            7.53597255220693        3.63334521737464       -3.43587930814690
C           -1.64891105054134       13.83819364858658        1.59012790864715
C           -0.41782370261756       13.55680513847878        0.98702666901202
H           -0.00418664286164       12.55272163665373        1.03701475701179
C            0.28474259586131       14.55556590973117        0.33185979669932
H            1.24685627218270       14.33183475363773       -0.11206389985465
C           -0.23321923918950       15.84117285241964        0.25095564143086
H            0.31814293034383       16.61688475707887       -0.26754119847751
C           -1.45894799979226       16.12649779389411        0.83463050002599
H           -1.87181201740526       17.12680122647152        0.77365575546002
C           -2.16274293636025       15.13300125240585        1.49967585689033
H           -3.11917315626840       15.36896757765288        1.95168721059211
C           -4.07899673072360       13.18074352150258        3.01849526650830
C           -4.13321344098207       14.12994276978468        4.04557338768630
H           -3.21808138551694       14.48283892255307        4.50831880164799
C           -5.35319510135338       14.62525366029065        4.47769355812647
H           -5.38239865509653       15.35863840914243        5.27533678315973
C           -6.53346883265182       14.18559848883621        3.89218910743521
H           -7.48532924479911       14.57534061819821        4.23337572468792
C           -6.49198167435865       13.24566706598732        2.87198088876268
H           -7.41048181936791       12.89836950305311        2.41324760235447
C           -5.27336698921750       12.74529124664554        2.44070300498651
H           -5.24051957995385       12.00514976236050        1.64813925446708
C           -1.52440044639105       12.22307178493609        3.95765024189040
H           -0.58611178537457       11.74512884624912        3.66317764508320
H           -1.26720573507246       13.16852132059435        4.44080586087783
C           -2.28215302067903       11.32004645767039        4.93028691865250
H           -2.71611488511104       10.47640374180566        4.38560589451111
H           -3.10862316036926       11.86898787201387        5.38758806240182
C           -0.44524284070341       12.07909335921257        7.02231190844187
C           -1.21307553914812       13.20585476281814        7.33516046563059
H           -2.27378364030362       13.21855336143241        7.11013171070639
C           -0.62972896690569       14.30738636176989        7.94043994113628
H           -1.23553954538561       15.17531321279396        8.17413224870707
C            0.72336393085857       14.29858252462450        8.25365712947179
H            1.17555065520110       15.15985133822151        8.73131547907005
C            1.49427373672857       13.18428056347752        7.95419847067655
H            2.55066155805233       13.17028871170556        8.19674186359550
C            0.91477122408650       12.08733162650417        7.33635477181402
H            1.52186429105083       11.22199545351644        7.09269628713609
C           -2.31393534094597        9.92396807535878        7.43029445071796
C           -3.27032525846959        8.99782223091149        7.00109932335949
H           -3.34700291639185        8.75457871154420        5.94601158004538
C           -4.11396489555506        8.38378979344761        7.91215990420194
H           -4.85243256459981        7.67053068918525        7.56406727662593
C           -4.01096130928055        8.67763691021194        9.26565522131911
H           -4.66985022789292        8.19580052949858        9.97843469764738
C           -3.05823402996599        9.58771968665274        9.70365433311336
H           -2.97348052783185        9.82110918037687       10.75873959321626
C           -2.21126148726156       10.20463636958414        8.79440471206912
H           -1.46814514619153       10.91080669190711        9.14710718957449
