316
 energy: -507.048661617308 gnorm: 0.000712171430 xtb: 6.5.1 (579679a)
Au           7.36557413017281       11.58556809896382        5.07983413182054
Au          10.78820311913441        8.68063013048185        6.27248265389210
Au           7.76681411642671        9.09202966019535        6.45564983714921
Au           9.58381593546378       13.69337380308859        5.71471638792216
Au          11.55743001678851       11.66905710157921        5.65090345142815
Au           9.28752636109896       11.28551850001168        7.17611299323159
Au           9.49457815995767        7.56267013315732        8.38256952319058
Au           6.46564745351270       11.39356364911514        7.61100658573686
Au          11.12609767967441       13.13002189833649        7.99232059215931
Cl           5.23061254545347       11.89281601377996        9.73988632864980
Cl           8.39426529764984        5.84303082788296        9.67245491933119
P            7.65954342370375       12.16546417010905        2.77117872500089
P            8.70035097049801       14.80394439651207        3.82340693654308
P            6.24524296896957        7.41791108243279        5.60621749482386
P            4.68382573699011        7.84244003564018        8.23476473425736
P           11.85507010568681        8.14243030772756        4.19697937211972
P           12.70215765630081       11.02200880428976        3.67964500939398
C            6.08056603156056       12.56542157008650        1.97291891089785
C            5.98813524406840       12.95648727742563        0.63217118092232
H            6.88156752492934       13.02799393811883        0.02232698009311
C            4.75564088961012       13.25149279820065        0.07311194320091
H            4.69855053037186       13.55522886346275       -0.96546380182631
C            3.59876934338643       13.15717687042919        0.83613285335957
H            2.63720381013293       13.38896556999575        0.39413826735464
C            3.67680594981967       12.76445297618830        2.16512495994964
H            2.77888757730073       12.68956650634154        2.76703839470116
C            4.90817447188943       12.47032312084442        2.72821839211412
H            4.96889681804554       12.17292349807595        3.77061042139282
C            8.38792531501993       10.85590859959193        1.73570312159488
C            8.33940546225365        9.54309245553797        2.20984199638831
H            7.92307546795147        9.34755296360226        3.19263548218164
C            8.80154042434793        8.49085931692372        1.43545206817022
H            8.72772674805563        7.47713838384778        1.81018171981432
C            9.34558868011289        8.73788115210769        0.18226360069639
H            9.70396293866675        7.91545225479037       -0.42518454673672
C            9.43020453220632       10.04170870424372       -0.28756592374509
H            9.85936902984037       10.24132514429856       -1.26235038320994
C            8.95255415356271       11.09402034907852        0.47857681961620
H            9.02028172270313       12.10444257897351        0.09301725620619
C            8.73795105994628       13.62881620235048        2.39542750192222
H            8.40496745893900       14.11327961842695        1.47652572896870
H            9.76663000867742       13.29519420857774        2.25283222211704
C            6.95320972609297       15.29856033214925        3.87462122703222
C            6.42306192760301       16.14707439075799        2.89613078372651
H            7.06548834223828       16.54757586591383        2.11995135395593
C            5.07907118619449       16.48226737464329        2.91638041019679
H            4.68041970318007       17.13939175745916        2.15257897099229
C            4.24785177391966       15.98549230331619        3.91194720471744
H            3.19875298000615       16.25557471167022        3.92729868427145
C            4.76527413725092       15.15051080563559        4.89237299472245
H            4.12610430409597       14.76605831376556        5.67854349315491
C            6.10891291594597       14.81237911392412        4.87441806699387
H            6.51113718120929       14.18030364554379        5.65845475837630
C            9.61885336966214       16.27672021880070        3.30806508943335
C            9.80817893235286       16.66717186990947        1.97864176629533
H            9.41761529552847       16.06145518213032        1.16891610400476
C           10.50313073528650       17.83146548561902        1.68721166395731
H           10.64095353148352       18.12644652000600        0.65364217086174
C           11.01526955631904       18.61791672313911        2.71067857054538
H           11.55391594440223       19.52820257417651        2.47614206858967
C           10.83776500591251       18.23534738791368        4.03379709967066
H           11.23807467725657       18.84299524022671        4.83705720152448
C           10.14781928392003       17.07215733269571        4.33119183420405
H           10.01225362796115       16.77213345307170        5.36539762665930
C            5.86396134528274        7.54843609775680        3.83085723497368
C            5.27990980415624        8.71848996364191        3.33115576235196
H            5.03610290974159        9.53328227104731        4.00545595419812
C            5.00222356283046        8.84652502420539        1.98003344104318
H            4.53783804436668        9.75463372737963        1.61322865604868
C            5.31788512451985        7.81704945730257        1.10283608564813
H            5.09712100841949        7.91703318975103        0.04698294619926
C            5.92002963402504        6.66224916479938        1.58274611218357
H            6.17255765555193        5.85693506905150        0.90310275553472
C            6.19695382927485        6.52826930302731        2.93539263821431
H            6.66510209191499        5.62111806489542        3.30013943069551
C            6.37027910710896        5.64113495299584        5.93725438359579
C            5.30503992761553        4.77486453959626        5.65654212324315
H            4.39155938713436        5.16143648906219        5.21888797029441
C            5.41376049859645        3.42401624467444        5.94018893766799
H            4.58139726100622        2.76472315647236        5.72404240589124
C            6.57875416476168        2.91548207713668        6.50115267291006
H            6.65477954924508        1.85841124211422        6.72591705824884
C            7.64441189752964        3.76202868120848        6.77098678488574
H            8.55589774488757        3.37486053958636        7.21012126799413
C            7.53986702948122        5.11389256830396        6.48549984538789
H            8.37196035480384        5.77512358051510        6.70089599339748
C            4.64903501007965        7.93371195692447        6.37825049979614
H            3.81647969655597        7.34242678367941        5.99173068656088
H            4.47358486145888        8.97066744067395        6.09150405520859
C            3.19664446082675        8.79150603454535        8.68307964114369
C            2.93725188994277       10.03259670464486        8.09374413026797
H            3.62285609448245       10.44021797568253        7.35751136895575
C            1.80499538775046       10.75277775244209        8.43534915225946
H            1.61095577580892       11.70575202272804        7.95743036269246
C            0.92086029150152       10.25189447211523        9.38167481851462
H            0.02161011860750       10.80313069617402        9.62915947986310
C            1.19209606679495        9.04367943009615       10.00905173595384
H            0.51581689573014        8.65722312568862       10.76242240528534
C            2.32384129780822        8.31990071318587        9.66908836788796
H            2.52357884203595        7.37429792756646       10.15985162456760
C            4.22758169342134        6.12170943421899        8.57705278445936
C            3.07058292561745        5.55972663737387        8.01848440685280
H            2.42436428952202        6.15995312125442        7.38734105546463
C            2.74143147367175        4.24005241137982        8.27684439860647
H            1.84473154160145        3.81699774827991        7.83964643319049
C            3.55333386569702        3.46241779207328        9.09402806171685
H            3.29245164088469        2.42929523949902        9.29018110009405
C            4.69229350246078        4.01352955514079        9.66244798594680
H            5.32708024836250        3.41533735845970       10.30554498354894
C            5.02515552529718        5.33548302024427        9.41018165373678
H            5.91558651153348        5.75984655922670        9.85629351791850
C           11.08196175316735        6.76015822113566        3.30295059932505
C           10.16188222083675        5.97272363731560        4.00068558635922
H            9.92098506648628        6.22304632858731        5.02875976485259
C            9.55790061875500        4.88093041647808        3.39838015990436
H            8.85397767708854        4.27875957553557        3.96146442122294
C            9.86265246027559        4.56020361872526        2.08264120672418
H            9.39443339559817        3.70584938985140        1.60880696188326
C           10.77263702345064        5.33583921386715        1.37572795083327
H           11.01575099341661        5.08772699084223        0.34929635146359
C           11.38029542326138        6.42713248161636        1.97699466266908
H           12.08525909629096        7.02260316770209        1.40882195984260
C           13.56126843339464        7.60642419143647        4.50542007656783
C           14.00854029489017        7.51252402701702        5.82628987990573
H           13.33549777139188        7.77300800088375        6.63719347118185
C           15.29854151219372        7.09504135166052        6.11099285381637
H           15.62672922844448        7.02834729125424        7.14156688035237
C           16.16326529612334        6.76312882444976        5.07759606328298
H           17.17170432482739        6.43393171783464        5.29748185046176
C           15.73210183049697        6.85077592829769        3.76011902632445
H           16.40301426820636        6.59070275768638        2.94993044454808
C           14.44255438343252        7.26627925031209        3.47251976874572
H           14.12086301775684        7.32570242661474        2.43912738487419
C           12.02613446395702        9.47612192430056        2.92229388582025
H           12.65783594046403        9.14303855508274        2.09748411985758
H           11.03238422368683        9.69059781504212        2.52536867088062
C           14.48406692376369       10.73629012806095        3.82880410055720
C           15.04474785264406       10.63251382551626        5.10468511416051
H           14.40677552844568       10.72466670513668        5.97826009791241
C           16.40401999892521       10.41111412795261        5.25767610661288
H           16.82610463945113       10.32861375884293        6.25237297416597
C           17.21909477863453       10.29925449405130        4.13922640934597
H           18.28249326734185       10.12991381157884        4.25887485847790
C           16.67256732856373       10.40950433635850        2.86673386061822
H           17.30852752762149       10.32801059015564        1.99326353644020
C           15.31399357140641       10.62790676928975        2.70744709213408
H           14.89278882982252       10.71971100801628        1.71241404167725
C           12.52695438787648       12.26914596044791        2.36957424534098
C           12.32772936870850       11.96949093209092        1.01908737631530
H           12.25813433934527       10.93900837245835        0.69100798896637
C           12.21820364142305       12.98858228161292        0.08417157226868
H           12.06853983241004       12.74106681224827       -0.96019671915169
C           12.31101995591664       14.31586343825868        0.47904513025319
H           12.23444281813878       15.10805139182964       -0.25599905284370
C           12.50489990153926       14.62639186972961        1.81899005479348
H           12.57820892644953       15.66054485512448        2.13404587193599
C           12.60363788519537       13.61191620291861        2.75664200593005
H           12.74649463733599       13.85656599844888        3.80429411798124
Au           9.00034786200381       10.88464162412433       12.78609595056185
Au           7.31495852672730       12.89018176701980       11.69038886357058
Au          10.14814356182788       12.90027700718813       11.03996839108761
Au           8.56943488862728        8.25661402214407       11.26672138426432
Au           6.29805510092786        9.92893361063790       11.79057940279221
Au           8.46278603406946       10.80636463960902       10.02094764184713
Au           8.17479766866470       13.45918536173425        9.16199010638930
Au          11.12892007953940        9.64567695794736        8.78946958070071
Au           6.67851344995434        8.71293138176324        9.31276479359590
Cl          12.30572557384757       11.18827467491938       10.23222914054431
Cl           8.08941775531898       15.23500550215421        7.57831369672305
P            9.84841044285206        9.83898829378238       14.72172305411133
P            9.79325219871944        7.22654381216843       13.07117226412213
P           11.88246280897570       14.35536456935308       11.84127645647335
P           12.83246099456055       14.52136056377384        8.95768039738180
P            6.02835000363514       13.38481880951210       13.61892499164145
P            5.12094279952127       10.42927986367887       13.79464112484798
C           11.64614246467273        9.94985420374420       14.90316985066024
C           12.28540746900748        9.59037566918955       16.09506514887617
H           11.70120153215569        9.24532324652170       16.94076829843806
C           13.66412025143497        9.67754250679269       16.19776841046008
H           14.15081392412857        9.39587867124151       17.12396308407105
C           14.41980954198037       10.12434645148742       15.12111210243571
H           15.49781632177566       10.19064557858068       15.20677910519508
C           13.79291254086065       10.48992029270171       13.93776577704698
H           14.37498584151332       10.84213284734851       13.09419089080567
C           12.41453026446858       10.40745026797018       13.83026037620391
H           11.92932888046507       10.69330228034426       12.90341110414104
C            9.15484252466921       10.43896754731188       16.28807399453713
C            8.86167105053791       11.80424702088195       16.38502598458512
H            9.03538353020403       12.44898136687682       15.52916290096413
C            8.35988715202599       12.33785293051060       17.56155132814975
H            8.14505754130795       13.39850336082498       17.62115666354873
C            8.13072469471604       11.51390126885012       18.65563002513048
H            7.73789296229672       11.92993328524677       19.57554686046349
C            8.40647357661967       10.15654272880881       18.56735287206737
H            8.23009618128743        9.50927885877619       19.41833749711518
C            8.91536774355444        9.61875531497956       17.39448086468030
H            9.12583672855188        8.55710989390092       17.34481431385210
C            9.46109255643859        8.03490164412093       14.71083963351025
H           10.02044667916610        7.52240358449065       15.49604814181520
H            8.39588413392543        7.92652755338073       14.92544802189779
C           11.60208533817579        7.25079875277087       12.93029463489583
C           12.41660183523150        6.66198566374090       13.90484558919993
H           11.96722668440587        6.17851386018752       14.76529662264807
C           13.79463828567662        6.68967216240487       13.77102851443152
H           14.41588984219951        6.23178887805567       14.53167497611342
C           14.37977706898035        7.29506521834223       12.66562611270399
H           15.45844002826679        7.31155944113605       12.56504639475515
C           13.58160966700121        7.87343564023366       11.68894971619513
H           14.02890512822776        8.34701673116512       10.82297293377176
C           12.20311421577543        7.84857340282840       11.82324728926184
H           11.57834387569535        8.30210174308675       11.06056028668235
C            9.41584181514474        5.47609443702778       13.36515315983073
C            8.67284760705441        5.01004505240152       14.45324161993406
H            8.31702201576865        5.69813409351380       15.21156615443821
C            8.39235286638629        3.65779799263822       14.57860007203129
H            7.82309371763003        3.30823737210510       15.43200440384538
C            8.83838433244508        2.75768059234409       13.62091392615835
H            8.61634097763346        1.70233833448110       13.72440237860427
C            9.56923875117692        3.21229604225067       12.53106822638596
H            9.91877378205950        2.51459923130786       11.77932851751869
C            9.85408965637208        4.56069677181515       12.39996140647098
H           10.42055679297152        4.91344129186581       11.54518825411318
C           12.54579506436537       13.99930448788667       13.49686453986967
C           13.90574879328270       13.96603625208940       13.81329753207123
H           14.65087550107832       14.15757564118507       13.05058421409825
C           14.31601314343773       13.68959746871026       15.10950960564926
H           15.37428243688635       13.66981883756426       15.34165625472018
C           13.38081301689451       13.44244723687088       16.10423471078752
H           13.70604116977134       13.22766729189446       17.11506781179775
C           12.02581112878811       13.46919850833439       15.80031958849186
H           11.28981178856120       13.27528322350846       16.57235535858202
C           11.61264733893004       13.74100667761125       14.50698903647719
H           10.55272363665059       13.75773553126667       14.26956295323983
C           11.42330215468080       16.10977226080123       11.92102916499659
C           12.27114109388155       17.06378145183011       12.49469305646487
H           13.22561604402977       16.75818867835979       12.90902433219360
C           11.89407925463515       18.39610789581858       12.53767161638526
H           12.55908593949240       19.12710099930909       12.98217370833778
C           10.66903977119200       18.79429187378059       12.01753246532786
H           10.37738698362082       19.83702379616112       12.05554593214162
C            9.81771368643233       17.85537015855411       11.45148902873026
H            8.86091285212532       18.15942273635536       11.04373601385891
C           10.19232889317142       16.52201372216931       11.40486078879317
H            9.52806066837706       15.79013602758319       10.95675579604567
C           13.35101636002519       14.30738868819162       10.72259488017253
H           14.08370850125098       15.06971353907778       10.99313634906390
H           13.81154469319818       13.32397881074913       10.82805759290550
C           14.33768057254034       14.20575515342638        7.98520690715622
C           15.54748951087620       13.75030037722726        8.50954700202390
H           15.66266372510788       13.60172778829371        9.57652476698854
C           16.61994700972494       13.48664502162879        7.66854465975269
H           17.55571249699236       13.13896549102052        8.09023341546343
C           16.49913003420991       13.66781416415586        6.29875765558423
H           17.33870651334156       13.46046510606793        5.64610300700149
C           15.29709358703048       14.11590742893527        5.76430142563587
H           15.19558965908418       14.26011992315884        4.69465822332446
C           14.22570934807124       14.37901673006766        6.59989442061207
H           13.28769875082338       14.73218045219548        6.18145500286872
C           12.57455836769431       16.30683693581397        8.76906016049755
C           13.59792822976337       17.22313603476131        9.03911945651577
H           14.56864366070185       16.86880436265038        9.36852509430485
C           13.37658386847871       18.58107250284748        8.88107283029313
H           14.17461016753539       19.28240674922333        9.09434900663696
C           12.14005358391146       19.04334535156956        8.44730333364614
H           11.97253101080056       20.10673483940992        8.32461810410162
C           11.12165746911498       18.14239626556159        8.16981990787937
H           10.15429553795588       18.49587077786286        7.83259057832270
C           11.33744229194583       16.78245047911713        8.32927353372030
H           10.53715828796745       16.08263630857228        8.11755782965288
C            6.87916887383328       14.56364737883775       14.71245476260538
C            8.03960915994420       15.18855238177577       14.24706839888289
H            8.40781851475022       14.95972018452780       13.25190245779739
C            8.72178295684592       16.10072296759288       15.03647805918322
H            9.61858826637287       16.57544215352954       14.65522551231939
C            8.25151745072808       16.40553032532240       16.30611043544041
H            8.78038194123348       17.12077777701829       16.92449464703735
C            7.09694830802549       15.79548138492045       16.78017121534234
H            6.72074881264506       16.03714267303792       17.76720792584668
C            6.41321176889031       14.88167492221708       15.99293569140316
H            5.51241339449314       14.41672856471226       16.37609831068890
C            4.38190474398542       14.06058569350211       13.29125269060471
C            4.09836258036907       14.50076437561666       11.99414811603691
H            4.85344953102376       14.41133188945702       11.22084285819763
C            2.85904905708493       15.03871795016975       11.68769438493846
H            2.65424960893726       15.37285307504552       10.67753477486411
C            1.88656328138229       15.14673169538723       12.67182008196825
H            0.91712479069889       15.56804399405366       12.43420053425534
C            2.15722869415254       14.71404010443081       13.96401505282765
H            1.40043960257487       14.79631079267911       14.73517546504376
C            3.39380947438409       14.17472022788853       14.27662669111984
H            3.58637901882483       13.83733655157083       15.28855018853167
C            5.76342419961069       11.91129031554302       14.70729502205486
H            5.08213199378119       12.16301754498516       15.52196370189509
H            6.72759939278513       11.64937957227288       15.14732102478931
C            3.34340057985612       10.75676923158136       13.67800847227676
C            2.83481103644000       11.29555731946701       12.49222094861153
H            3.49227758281131       11.45646298115044       11.64505328097215
C            1.49566081686750       11.63828753720121       12.40204103662581
H            1.11702560204098       12.07568875783403       11.48595207030051
C            0.64557788968501       11.42506602252958       13.47876625544172
H           -0.40236284182581       11.68962691374808       13.40310832971444
C            1.13846886879388       10.86859992183007       14.65185675857554
H            0.47642175673581       10.69366761540124       15.49159590794924
C            2.47997651602803       10.53878101176464       14.75727214931164
H            2.85951381702907       10.10897689983331       15.67738872713673
C            5.33604586942689        9.08044299025841       14.98954449622595
C            5.40155768086955        9.26564542126528       16.37430039021683
H            5.31585930046921       10.25915069189701       16.79871254661440
C            5.57659825079865        8.17962551629063       17.21866502883194
H            5.62350057290240        8.33890802484003       18.28957492970148
C            5.68302485640340        6.89658356056134       16.69990595528859
H            5.81242869462775        6.05092085990943       17.36457337171619
C            5.61930403042312        6.69950404845821       15.32632279575906
H            5.69314082963560        5.70051519764340       14.91294314647048
C            5.45424777888129        7.78324293503161       14.47927103412391
H            5.41077085448090        7.62688125754215       13.40605210398312
