404
 energy: -590.279698602147 gnorm: 0.000431323744 xtb: 6.5.1 (579679a)
Au          13.80982613970231       17.31816558902774        6.82921369607700
Au          13.16802120520288       16.46791384172063       10.47972319393637
Au          10.36584925900511       15.31831256506036        7.74410663039332
Au          12.66088770454252       15.14331957741129        5.13419431561217
Au          13.80993151185312       13.19629134132264        6.82945090594339
Au          12.51442255909475       10.67241803502528        9.98500328508792
Au          14.92064029057919       12.45981393654090        9.33302113880137
Au          13.81010330493565       10.29492701693978        6.82913497437565
Au          13.80882793011267        7.35850067894341        6.83044720433676
Au          15.57863971776960        9.53655044231371        9.56002079822685
Au          13.65546516988976       13.10562780066658       12.12435114951359
Au          12.51831215363962       13.81219408904359        9.26372356450719
S           13.26359243314055       10.78312194177745       12.20999862860895
S           14.99667326557264        7.32216554015033        8.84999609786448
S           11.63150138026772       10.64564158443063        7.80370437659361
S           14.05515184576133       15.42537358679376       12.38491645189558
S           12.18230888348832       17.47220728533280        8.57758679906462
S           10.40682866956354       16.05382620799120        5.48366265364623
S           16.70711952703750       11.35048158227007       10.60691940769466
S           10.19367319587278       14.35034018086433        9.90059942471464
C           10.85663017772124        9.10362817000315        7.53954454474458
C           10.00648556112607        8.99013004228367        6.44655444447813
H            9.78039716000340        9.86856325838025        5.85727102621653
C            9.43739536214637        7.76814581473961        6.11737534918707
H            8.80076832275857        7.72543506903686        5.24294063180517
C            9.69627910486261        6.62911142726733        6.87694806716445
C           10.50537552033795        6.77076425846233        8.00579995448156
H           10.71228049965832        5.91883607821545        8.64151277744824
C           11.08323029537018        7.98718420164569        8.33509540816429
H           11.70856704718611        8.06838862649838        9.21546345082382
C           15.77220148258849       15.66192183198409       12.14122507269420
C           16.67536879118904       14.60993137962764       12.18300846341437
H           16.32377200947736       13.59980913676934       12.35610250454214
C           18.02962315968556       14.83407912143483       11.98933546929267
H           18.68984294373840       13.97670870793432       12.01888897346934
C           18.52281329491748       16.11483464243071       11.75306231657209
C           17.60705784924426       17.16960998261553       11.73752587273149
H           17.94272131610238       18.18488539146458       11.55845835403558
C           16.25508370047967       16.95121027857445       11.93443056942261
H           15.56481835239454       17.78649321242987       11.92388676578970
C            9.39135467763305       12.80354934591219        9.74059835836664
C            9.11892908948390       12.10322475803418       10.91462284630446
H            9.44563732861314       12.50780766396609       11.86574708432361
C            8.41775936569889       10.91067622041503       10.87221075362484
H            8.21351870083864       10.40259945023821       11.80732837409856
C            7.97137923177467       10.36858916488653        9.66439935141385
C            8.28986795088196       11.05478252062972        8.49500900368360
H            8.00092787417901       10.66770653255043        7.52592145710920
C            8.99255338035165       12.25150923861007        8.53060191996233
H            9.22811112567815       12.75754303428896        7.60170493757379
C           13.89120204871048        6.68509250802293       10.03880567772109
C           13.79842448888899        7.23588698432104       11.31082279671983
H           14.39579102432738        8.10264271675432       11.56791190475618
C           12.94474792026318        6.69252981706255       12.25909825961369
H           12.91241578131000        7.15942626184424       13.23544154822769
C           12.15352531328287        5.58407017350057       11.96687389393693
C           12.27323611419676        5.02186141367760       10.69308826064390
H           11.68876064378759        4.14943302859094       10.42290733833199
C           13.13114961972696        5.55500102083101        9.74661306689757
H           13.21059289857318        5.09499776418556        8.76843083810518
C           11.79055394122672       10.53901849846383       13.12332152247725
C           10.97930343338478        9.44474354502579       12.83792045883006
H           11.22859879307643        8.78989198025510       12.01151161290381
C            9.85547664096533        9.18940393178665       13.60410683505197
H            9.24990219294875        8.32534488494031       13.35732414673067
C            9.49505925604130       10.01701722941315       14.67040623714916
C           10.31079513307255       11.11380794932668       14.93879698758721
H           10.08083573818604       11.79424934312752       15.74915459654373
C           11.44395138651437       11.36967439732577       14.18061785926354
H           12.06456757462478       12.22635668885970       14.41614182594229
C           18.17315696801719       11.68986443892990        9.70870010490256
C           19.19175557969027       10.74452646539499        9.63064413926793
H           19.05195866465325        9.76720368215343       10.07806375902253
C           20.39490858097731       11.04871323397121        9.00645910260673
H           21.15540313001540       10.27805927298796        8.97732372706273
C           20.62659896547743       12.30425982091805        8.44619363391890
C           19.59498113699397       13.24346279004310        8.53028242889769
H           19.72152298147188       14.23707233174563        8.11616738544647
C           18.39354910850506       12.94446425287741        9.14921836122507
H           17.62431703397036       13.70285833580904        9.21240341106248
C           21.95474642913918       12.70174902929582        7.81100870847068
C           22.95332061791436       11.53718824670599        7.75612604239209
H           23.87270771788248       11.86915211452481        7.27227820413556
H           22.54910716901324       10.70467891158147        7.18005013842294
H           23.20400072177395       11.18694089674404        8.75756620225503
C           22.57949899149144       13.82987142783105        8.65266596734014
H           21.93934766717814       14.71133505081048        8.65344686826244
H           23.55017591515783       14.11038686720706        8.24237822260401
H           22.71944828850846       13.49742885881206        9.68133616256445
C           21.73344581100465       13.21181119864547        6.37667696123895
H           21.02185158086922       14.03650076635478        6.35512411770473
H           21.35260311314799       12.41000233025578        5.74505100195790
H           22.67762962222218       13.56170285831403        5.95784717297014
C           10.40558523435699       17.79676286863993        5.50269333278517
C            9.40655507209104       18.47744774825609        6.19393129452943
H            8.69293696812949       17.91946601009953        6.78838739939858
C            9.30606024772786       19.85469556126992        6.10686794567498
H            8.49967991964006       20.34260914004274        6.64133514169030
C           10.20324059597528       20.60451310627499        5.34257598134318
C           11.21587407857120       19.91642822205269        4.67558544321503
H           11.94192808537143       20.44244128736352        4.06781448269173
C           11.31544261885415       18.53516210698237        4.75473810767898
H           12.09596288294858       18.02396093966412        4.20472443687942
C           10.01070253574537       22.10775399536979        5.19231993900499
C            9.56751755939447       22.73858157274459        6.52370965205504
H            9.60180743382618       23.82604546162737        6.45120892268060
H           10.22980007876944       22.42115405197834        7.32885517902042
H            8.54808952845202       22.45231839385886        6.78022545987823
C            8.91518355307318       22.33116599573424        4.13310210736232
H            9.22118594256919       21.89897417782343        3.18000415988348
H            8.73547746917588       23.39759630969328        3.99398952597044
H            7.98487638634827       21.85636465748182        4.44522226442420
C           11.29760136072830       22.80818680777806        4.73062815330436
H           11.56097479170815       22.51822048176232        3.71354708869374
H           12.12813031226451       22.56040276078845        5.39184178371551
H           11.15581377891552       23.88926780843427        4.74451748017432
C           12.13257384983526       19.18468291047887        8.95859343088618
C           11.77734869794049       19.61205865740247       10.23345910961738
H           11.51594809917836       18.88358897069359       10.99187432203172
C           11.76438249684002       20.96154484020996       10.54081011104778
H           11.48359105850144       21.25631300936372       11.54562565183894
C           12.11762493460481       21.92862943284741        9.59592474606529
C           12.45019119832374       21.48693345861934        8.31739177747247
H           12.73512015082690       22.18662931261393        7.54225223443774
C           12.44125715318702       20.13755772938832        7.99866860657923
H           12.68034156400872       19.82644051876127        6.98976195602431
C           12.11480032592852       23.40004048396511        9.98942782213075
C           13.06077933180276       23.60475549055474       11.18625080489749
H           13.09791460003018       24.66002744271708       11.45806181015195
H           14.06759641403620       23.27587013685015       10.92797460484784
H           12.72453103412860       23.03817422863871       12.05392384920364
C           10.68419723400793       23.80474552290524       10.38850373757294
H           10.00275155378719       23.64370065412005        9.55282501161660
H           10.65593593870898       24.85948087864858       10.66350993522335
H           10.33548340183243       23.21702209154997       11.23715029918378
C           12.57667059554186       24.31859749960430        8.84900413604022
H           11.90998380333573       24.24455903358986        7.98985869789321
H           13.58986884869159       24.07052864497364        8.53251402378260
H           12.57229745728689       25.35386832657110        9.19218693306313
C            7.14788839081200        9.08659898025024        9.67925906670965
C            5.86450910275221        9.33590395698272       10.49251847243573
H            5.25023035003567        8.43504182758458       10.51053154104576
H            5.28810836939648       10.14371542961097       10.04051327673066
H            6.10014727191444        9.61261787304774       11.51960196003301
C            7.96584652943596        7.96139157327172       10.33593049130273
H            7.41807687258333        7.01954517676553       10.28954462198469
H            8.16807575811904        8.18881111456522       11.38153510016535
H            8.91702121687166        7.83810074755225        9.81858395451621
C            6.73705399958643        8.62767069102074        8.27412268547260
H            6.15293644474499        7.70915238461099        8.34636915805356
H            7.61027805661222        8.42608124952832        7.65567109725972
H            6.12286188581221        9.38203123725315        7.78229539942150
C           11.16518406227027        4.98681837978261       12.95987379988756
C           11.21310915497616        5.68003622099452       14.32898590136164
H           10.48925185942771        5.21349827944374       14.99838515750569
H           10.96167046927638        6.73709943410011       14.24335590598606
H           12.20209485685769        5.58706415054587       14.77815196190290
C           11.48351381828519        3.49526316245977       13.16692369671151
H           11.37778724159776        2.93740476039703       12.23705496628300
H           10.80227939868777        3.06671401901435       13.90265830326658
H           12.50569279676318        3.37830183183354       13.52764433299485
C            9.74524627728404        5.13900130371775       12.38478360039350
H            9.65053274985974        4.61331574670071       11.43472095658162
H            9.52307501149298        6.19322479159349       12.21815803299515
H            9.01003768451107        4.73342646176374       13.08039631129422
C            9.18703941200384        5.24718742589709        6.49703380851023
C            8.44665446053280        4.61555858495288        7.68863542065605
H            7.61809841910789        5.25546518587174        7.99422476229150
H            9.11129110546300        4.47944352259726        8.54135232181576
H            8.04902485310225        3.64008620920992        7.40719279873239
C           10.41144739904299        4.39169963498028        6.12049028863995
H           11.07280872052999        4.26567282347063        6.97782336329792
H           10.97229869343242        4.88173636015302        5.32279948811710
H           10.09554551853970        3.40634910018289        5.77723903251066
C            8.22850180193568        5.28378597567891        5.29878751543434
H            7.36332736455178        5.91176264331436        5.51289821704731
H            7.87377625497169        4.27472347685305        5.08583366641837
H            8.73056097047274        5.66059057888798        4.40760069579479
C           19.99624868609913       16.39673468198832       11.49552469461626
C           20.14323128368959       16.96872086658341       10.07438444861564
H           21.19667481864411       17.09979723121659        9.82536645689477
H           19.64539521799221       17.93456765967681        9.98976725544068
H           19.69152960204672       16.28781989234568        9.35174719050342
C           20.85820952352847       15.13203027372176       11.60754780814831
H           21.90244332263387       15.38585485135566       11.42189812442254
H           20.55210174998666       14.38716727295435       10.87317583076714
H           20.78644198749969       14.69717940549117       12.60476730623281
C           20.50932856947781       17.42165197171913       12.52262032652503
H           21.57062083251203       17.61267031713835       12.36049695403597
H           20.37386245722626       17.03784919715883       13.53414724305041
H           19.97394858693760       18.36666484342505       12.43552761854808
C            8.25041827511383        9.68518986537298       15.48322500149702
C            7.98627835710576       10.70607162367288       16.59894846160172
H            7.83522718641677       11.70370930224808       16.18622577716377
H            8.81472209537490       10.73478400055170       17.30690580246676
H            7.08446303806446       10.42355129759607       17.14347374554678
C            8.43372114752696        8.29853017079826       16.12683287179873
H            7.56424929006881        8.04985257274388       16.73605970890043
H            9.31907954511387        8.29544362763576       16.76314732613675
H            8.55162171857946        7.52780370984136       15.36549803870683
C            7.02571276288563        9.66328991624484       14.55099031307723
H            6.91526630695526       10.62831562317404       14.05580801924194
H            6.12093974108051        9.46041373926190       15.12481227360179
H            7.12757685274973        8.89079584951679       13.78945808221624
Au          14.45162647747207       16.46766392232973        3.17894928148703
Au          17.25393269339688       15.31887429114132        5.91431577912881
Au          14.95912094157337       15.14294026911396        8.52425714971678
Au          15.10604977543159       10.67187136965233        3.67319287203542
Au          12.70018532396433       12.45984670101636        4.32532840514599
Au          12.04128890329021        9.53674843315488        4.09824562455133
Au          13.96516293963536       13.10553493521451        1.53383813842662
Au          15.10081344236202       13.81195493207071        4.39473101168529
S           14.35625203666861       10.78309376317298        1.44838090951971
S           12.62378266732744        7.32222630091257        4.80866622291200
S           15.98845821791295       10.64563669929431        5.85487165713603
S           13.56477193667655       15.42538078138695        1.27353534950958
S           15.43779703565553       17.47219260980077        5.08089100213242
S           17.21313802648805       16.05380391761872        8.17480596489164
S           10.91291830478918       11.35049934554004        3.05159731044153
S           17.42626693959221       14.35027283144138        3.75798860798624
C           16.76352425163460        9.10367534308309        6.11880526091055
C           17.61358209891822        8.99013579149832        7.21185757464493
H           17.83962321775353        9.86855638509995        7.80117477679702
C           18.18262851450943        7.76814121440277        7.54108114796341
H           18.81923120538978        7.72542945310455        8.41553523945811
C           17.92375617743954        6.62909969270855        6.78151920777154
C           17.11473502909634        6.77076206212670        5.65261469305557
H           16.90775514607887        5.91880259652725        5.01696928654904
C           16.53688253713862        7.98719692737117        5.32328747597647
H           15.91157864022707        8.06839346269303        4.44289441968075
C           11.84773277407506       15.66199603206824        1.51720563780093
C           10.94457882857883       14.61000033510269        1.47539223664861
H           11.29620392559539       13.59988893236586        1.30228399826853
C            9.59032798580774       14.83411544549525        1.66907062996137
H            8.93012415720891       13.97673339979950        1.63950183650015
C            9.09713046186486       16.11485957639277        1.90537057262349
C           10.01286963802000       17.16965060513380        1.92092205184782
H            9.67718878470143       18.18491598308465        2.10000726886498
C           11.36484733400991       16.95127715740683        1.72401672378237
H           12.05510298762220       17.78656768457994        1.73457151831646
C           18.22861136439933       12.80349204887416        3.91783878452000
C           18.50105148657845       12.10321179577560        2.74379901518055
H           18.17431322689675       12.50779254282743        1.79268386769701
C           19.20226063020036       10.91068948264671        2.78620531812047
H           19.40652747141438       10.40263217282299        1.85108523271538
C           19.64864164573782       10.36860520530902        3.99401970519730
C           19.33010542101771       11.05475435300143        5.16341852864132
H           19.61903037322322       10.66768124978199        6.13250986470878
C           18.62737300499054       12.25143643853817        5.12782781973648
H           18.39173883903532       12.75743441903532        6.05672582021619
C           13.72874952372606        6.68493465017886        3.61952266033679
C           13.82153618638526        7.23582462888215        2.34755896209192
H           13.22420066240587        8.10262134141741        2.09053140347993
C           14.67524009282437        6.69251535287176        1.39929080192732
H           14.70757467838432        7.15943676558661        0.42296368101557
C           15.46647794714915        5.58406180907314        1.69151050646156
C           15.34677850285273        5.02180317254437        2.96526469216751
H           15.93127513244139        4.14939830011062        3.23546382311427
C           14.48881544280267        5.55486231698360        3.91169755496061
H           14.40941339678413        5.09485413450215        4.88987871347470
C           15.82942643417217       10.53913203602449        0.53520707827721
C           16.64066783760193        9.44483524244215        0.82059025236635
H           16.39134992988143        8.78998494067691        1.64699410319747
C           17.76449288164144        9.18945286668583        0.05439029540743
H           18.37006088413392        8.32538869383894        0.30118416127684
C           18.12493330420559       10.01703911387782       -1.01192439085459
C           17.30918620208258       11.11382347527757       -1.28032938416240
H           17.53914913929827       11.79423866751009       -2.09071005748925
C           16.17603498862697       11.36973945186800       -0.52213557806792
H           15.55541870106540       12.22641008217767       -0.75770107193576
C            9.44678368538857       11.68989435068310        3.94965604637123
C            8.42821537434176       10.74453060775178        4.02773743473154
H            8.56802885440017        9.76720645906503        3.58032518739856
C            7.22507181540439       11.04870201997436        4.65194775236377
H            6.46458719198413       10.27804037741694        4.68109516232460
C            6.99337890719286       12.30424299664553        5.21222799562314
C            8.02497796514742       13.24345848132367        5.12813234627555
H            7.89844334605430       14.23706365957677        5.54225756907839
C            9.22638200188812       12.94448286619653        4.50915524353837
H            9.99558932045386       13.70289420967495        4.44596099226925
C            5.66524421436175       12.70173630800750        5.84742571403161
C            4.66669103680978       11.53716269531549        5.90234029272492
H            3.74731948278930       11.86911976468338        6.38622116418431
H            5.07093694545127       10.70466039412042        6.47840381521598
H            4.41598164192214       11.18691227434267        4.90090859601191
C            5.04048619735274       13.82984321704260        5.00575264193118
H            5.68064046383948       14.71130511105910        5.00494966677849
H            4.06981619988183       14.11036687907344        5.41604933161781
H            4.90052573289788       13.49738375674370        3.97708940204272
C            5.88656150619838       13.21182604884551        7.28174426151706
H            6.59813065897353       14.03653767938867        7.30327245706871
H            6.26743834800154       12.41003770683978        7.91337473268284
H            4.94237480062069       13.56169496100842        7.70058547858658
C           17.21435533143913       17.79674833689822        8.15569454926432
C           18.21341819940144       18.47742419577200        7.46449351612420
H           18.92703518402293       17.91943289155087        6.87004683622854
C           18.31395228791735       19.85467188030300        7.55158366994824
H           19.12034576404641       20.34257269400962        7.01712469762132
C           17.41678313553325       20.60451100873487        8.31586871131752
C           16.40413558575821       19.91643961492902        8.98284870780963
H           15.67807978586274       20.44246428166936        9.59060933565117
C           16.30453739682747       18.53517483201483        8.90368365358799
H           15.52400955370731       18.02400415486937        9.45371095219113
C           17.60933758497729       22.10775313000644        8.46612149519400
C           18.05251346700246       22.73858048469988        7.13472814035157
H           18.01824024142979       23.82604486141607        7.20723350761123
H           17.39021674327188       22.42116565303252        6.32958988616947
H           19.07193402338237       22.45230428258411        6.87819719794305
C           18.70487334567099       22.33116621286857        9.52532212464288
H           18.39888290081402       21.89898515447921       10.47842852899466
H           18.88458735100136       23.39759703102938        9.66442389015741
H           19.63517410523798       21.85635925975278        9.21319198424567
C           16.32245789588171       22.80821008487156        8.92783236072496
H           16.05907150649630       22.51821452096962        9.94490142531405
H           15.49192407444909       22.56047648560330        8.26660628500046
H           16.46427697011361       23.88928757325431        8.91398580777987
C           15.48738556597834       19.18465347583968        4.69984717867440
C           15.84263265255026       19.61201645338246        3.42498760608895
H           16.10403883012143       18.88353861652145        2.66658221679427
C           15.85561906209142       20.96149602521457        3.11762432787906
H           16.13639763260173       21.25624295971906        2.11279940947675
C           15.50240059757356       21.92858698448232        4.06250858894578
C           15.16983842271515       21.48690030155848        5.34104784889937
H           14.88491896181991       22.18659622358316        6.11618833568929
C           15.17874045426320       20.13753096551862        5.65977858631588
H           14.93966317038936       19.82642385937570        6.66869025892767
C           15.50525073482878       23.40000356646653        3.66903466311730
C           14.55930316981408       23.60478900933304        2.47220025201201
H           14.52223485003889       24.66007245056068        2.20042317621115
H           13.55246183401045       23.27595322096648        2.73044318582204
H           14.89554287908483       23.03821799592242        1.60451671058075
C           16.93586157196770       23.80470749355146        3.26998608871566
H           17.61730468067640       23.64365232553886        4.10566446787811
H           16.96411685229218       24.85944861342768        2.99500059103166
H           17.28458152491341       23.21700385653747        2.42132765544605
C           15.04337206036760       24.31850709721161        4.80949655329229
H           15.71000315595014       24.24436156495508        5.66867557118200
H           14.03014161786910       24.07046589958470        5.12590567722330
H           15.04782608050703       25.35380289941192        4.46639485896481
C           20.47214117265236        9.08662929423055        3.97917519094423
C           21.75552035491390        9.33593644655723        3.16592123982496
H           22.36977820772307        8.43506088195657        3.14790987172675
H           22.33193624961894       10.14373318305425        3.61793479111787
H           21.51989359109621        9.61265933901671        2.13883737249204
C           19.65416194806878        7.96143619127443        3.32250978501889
H           20.20192651466286        7.01958754096076        3.36888008867651
H           19.45191696230204        8.18887070273090        2.27691172012392
H           18.70299550727745        7.83815323564880        3.83987364929049
C           20.88296005876584        8.62772416042712        5.38432296261508
H           21.46702557577978        7.70917251637022        5.31209058252534
H           20.00973248376350        8.42619695050116        6.00279039697364
H           21.49719898092447        9.38206575003581        5.87612242662009
C           16.45482270566245        4.98682468318508        0.69853154358324
C           16.40686929888427        5.68007991843395       -0.67055274171588
H           17.13068061781415        5.21351688265134       -1.33998105410773
H           16.65836072704966        6.73712894042847       -0.58489814107317
H           15.41785997752293        5.58716326717303       -1.11967852134807
C           16.13648892526789        3.49527130912585        0.49148954365714
H           16.24224964847989        2.93740507344383        1.42135075047538
H           16.81770598386601        3.06674115949187       -0.24427007093276
H           15.11429916470900        3.37830515387515        0.13080048470717
C           17.87474049051573        5.13902460290545        1.27366073814068
H           17.96943394445652        4.61336157448296        2.22373875122037
H           18.09690617837512        6.19325245504299        1.44026776860986
H           18.60995719531887        4.73343249842239        0.57806911669790
C           18.43296573361370        5.24717096575721        7.16147052066157
C           19.17336922676256        4.61554381231400        5.96987989714953
H           20.00192728358074        5.25545809935614        5.66431138173379
H           18.50874472536149        4.47944103417789        5.11715196188373
H           19.57099653674440        3.64006851273647        6.25131448089694
C           17.20855305099426        4.39168606213486        7.53800911223740
H           16.54720656025380        4.26563484929201        6.68066893522546
H           16.64768585892345        4.88174060783891        8.33567766515191
H           17.52444893623790        3.40634470365819        7.88129539932750
C           19.39149128869734        5.28374894328470        8.35973001918898
H           20.25668285741583        5.91170633654475        8.14563264978580
H           19.74619605971808        4.27467862669868        8.57268631531102
H           18.88943379928904        5.66055968160210        9.25091495805045
C            7.62369747505298       16.39673285459378        2.16292339185266
C            7.47673627485727       16.96868951946653        3.58407615276940
H            6.42329729498847       17.09976034083206        3.83311350940706
H            7.97457798374106       17.93453176410571        3.66870886524331
H            7.92844979679598       16.28776947243284        4.30668851537663
C            6.76175291645592       15.13201883213642        2.05089012148546
H            5.71751799735226       15.38583422190766        2.23654509856718
H            7.06786963842323       14.38715376865017        2.78525633407126
H            6.83352073654471       14.69717437909441        1.05366775359514
C            7.11061400435003       17.42165412172413        1.13583576866479
H            6.04932491623017       17.61267804240136        1.29796855726375
H            7.24607155261783       17.03784938043405        0.12430797353478
H            7.64600264400057       18.36666237814709        1.22292364079890
C           19.36959013505885        9.68521563990934       -1.82474610829013
C           19.63373084031819       10.70610156490437       -2.94046974639059
H           19.78475494878696       11.70373952794244       -2.52773820693165
H           18.80529004284325       10.73480166377629       -3.64843052574699
H           20.53555544390406       10.42361343262458       -3.48499741743588
C           19.18633769057557        8.29855438750962       -2.46837090161216
H           20.05583287414778        8.04989542965090       -3.07757518063420
H           18.30099896823699        8.29544229637134       -3.10471074636341
H           19.06844017539288        7.52782319409650       -1.70704044048524
C           20.59433039926649        9.66329658500505       -0.89255284677855
H           20.70481153451621       10.62831208157585       -0.39735999496531
H           21.49908381099063        9.46041871730577       -1.46640905255575
H           20.49249004586206        8.89078869888610       -0.13103141835687
