344
 energy: -594.630074756623 gnorm: 0.000109532240 xtb: 6.5.1 (579679a)
Au          -0.55225293406936       -4.57232418146477        9.14419733362459
Au          -2.23894618819591       -2.34320935470369        9.42124047162419
Au          -3.26751841761193       -4.94642844136262        8.45719634373494
Au           1.05516296957250       -6.77962205099376        8.82922875816859
Au          -2.47610613009214       -4.58885302458600       11.28506197481688
Au          -1.68527598255892       -6.98317732408678        9.77376674257961
Au           0.51811831322130       -2.12739366006344        8.39796417881293
Au           0.34100222542499       -5.78918767812547       11.55717649246318
Au           0.01181921834493       -2.64988871283156       11.21421107350145
Au           2.12011478355228       -4.21462407353904        9.77484193877885
P           -2.86651145388396       -9.00437808820256       10.15344275403119
P            2.25974660920380       -8.81120552515635        8.42631739082823
P           -3.95581962236240       -4.70589375028173       13.19008533843882
P            4.43614202133442       -4.07238708484234       10.38536981897269
P            0.16595405534538       -1.78937038376405       13.45854570429227
N           -2.80552403081783       -9.58271223492823        7.50062517824960
N           -2.60830752019064      -11.39993742704291       11.32583674697783
N            3.02914466238843       -8.26937013486819        5.96095070748470
N            3.86187806599474      -10.51444058677579        9.71462619589649
N           -4.34070698671707       -2.17916708376480       13.63458289079657
N           -6.58901755506141       -4.81331979351490       13.67912775967891
N            4.97702653188278       -3.01742075838643       12.82157637248861
N            5.18221592501963       -6.54847383422578       10.77450338782202
N            0.75444977538859       -2.28408634434900       16.03411735176910
N            2.16862052391148       -1.00629963190635       12.05618633375705
C           -3.29214089922006       -9.99368372335460        8.67542783930639
C           -4.09253938036086      -11.12982494877627        8.76582800978600
H           -4.47258721340802      -11.43691587272881        9.73186563189237
C           -4.38051748215487      -11.85671190959391        7.62224280172296
H           -5.00486144091628      -12.74063350871972        7.67378248905270
C           -3.84750271981219      -11.42765603612467        6.41582088333071
H           -4.03647888988912      -11.96458427449979        5.49492817983959
C           -3.06549732651779      -10.28530572598704        6.40142055801898
H           -2.62756894652946       -9.91718365498271        5.48209185043396
C           -2.06594451714276      -10.18019741842629       11.28378215398510
C           -0.96698956385579       -9.82250089267142       12.05521550863111
H           -0.55637025263682       -8.82308730339653       11.99313426209562
C           -0.41636245253766      -10.76311361601811       12.91315718442102
H            0.43828829786316      -10.50707517423202       13.52847659795412
C           -0.98551339187557      -12.02632152115838       12.95703587106855
H           -0.58817845639903      -12.79266886012465       13.61097407590851
C           -2.07968691178615      -12.30189585576324       12.14630671472130
H           -2.54966983203110      -13.28028054909093       12.15432694868114
C           -4.48843981834974       -8.69632170824218       10.90305552578453
C           -5.45242967385170       -8.04849773250491       10.12347131869567
H           -5.23354442902633       -7.79638504492304        9.09238671316993
C           -6.68310475352087       -7.71923974393668       10.66331447225166
H           -7.42200985932707       -7.22394074783399       10.04460710631221
C           -6.95809031368722       -8.00761380492141       11.99417656996649
H           -7.91728308694952       -7.73783413810221       12.42065144769612
C           -5.99896930994511       -8.62941542776825       12.78096069819352
H           -6.20518145035567       -8.84488885917736       13.82311051022579
C           -4.76904606874371       -8.97582259108555       12.24169666771802
H           -4.02594229400901       -9.46278335610835       12.86236687495944
C            3.52394433574699       -8.68839597213976        7.13365742357166
C            4.88397543515932       -8.90634500789058        7.30724295364354
H            5.25755898329931       -9.23998770923171        8.26668748613884
C            5.74513584922619       -8.69186739489829        6.24176115857749
H            6.81179025366298       -8.84141893826277        6.36059536264784
C            5.21348094819057       -8.28335010514420        5.02889852820494
H            5.84741983791739       -8.10423167149664        4.16972577284049
C            3.84595180793379       -8.08447618684791        4.92955024676734
H            3.39268933965730       -7.75407516044592        4.00048780694269
C            3.03866571931528       -9.48182480288631        9.92124992832627
C            2.73537670963970       -9.00469632782864       11.18920038814815
H            2.07065179878651       -8.15988438846553       11.30917453770914
C            3.29846141281531       -9.62578703057709       12.29356988730081
H            3.07181125894064       -9.27159617948340       13.29251916501488
C            4.14901285659140      -10.69952163404405       12.07677540024523
H            4.61137026859441      -11.21858396526473       12.90723307853166
C            4.40726194536310      -11.10559590116535       10.77211075950833
H            5.07267874072673      -11.93864014412452       10.56815413895217
C            1.19377246892038      -10.19200333435696        7.90238610344701
C            0.38500682989628      -10.78170969978201        8.87880952203162
H            0.45693487446299      -10.44724233782746        9.90828607385848
C           -0.49699659990796      -11.79656606123187        8.54674662327106
H           -1.10971983943503      -12.25016383569773        9.31737034646833
C           -0.59902022334377      -12.22611246238312        7.23015369958547
H           -1.29134281529942      -13.01785054141898        6.96882180719043
C            0.18862005231584      -11.63739826733720        6.25124800567116
H            0.11408637638725      -11.96683802923881        5.22100077995699
C            1.08209020686363      -10.62959711023981        6.58217586490986
H            1.70081559609790      -10.19635902296170        5.80773114347428
C           -3.93354107197450       -3.26948376117547       14.29517895672493
C           -3.50748343685451       -3.23208400229775       15.61674782719616
H           -3.15983526046295       -4.13513847244850       16.10337157805161
C           -3.55114833803799       -2.02237440050938       16.29338193955130
H           -3.23059240634281       -1.95693345493633       17.32675034795144
C           -4.02111851256424       -0.90418854578176       15.62154602760519
H           -4.08552454193978        0.05553468214834       16.11879343437637
C           -4.39864550810923       -1.02625750745801       14.29069993107106
H           -4.75239122408114       -0.16607048019282       13.73054455677648
C           -5.70481594634191       -4.70363952565707       12.68455117553425
C           -6.09037162913030       -4.56184195187186       11.35956090708943
H           -5.34466152092711       -4.48294710238680       10.58088388890516
C           -7.44164087799131       -4.53001668498663       11.04892681828894
H           -7.75971208392069       -4.42394724853764       10.01815040169713
C           -8.35520921001877       -4.64434288405396       12.08512130065071
H           -9.42084384683282       -4.62501200077697       11.89276736891377
C           -7.88343371464684       -4.78787024333927       13.38499262077797
H           -8.57010808440632       -4.88182663151090       14.22049625400390
C           -3.74738650972264       -6.15504901739786       14.26531468030608
C           -2.64734697788587       -6.98609219697134       14.04705300646833
H           -1.96533416723385       -6.76873261408399       13.23391011772708
C           -2.41032716441323       -8.08175650921049       14.86156083281765
H           -1.53852607162238       -8.70025612735874       14.68374273391944
C           -3.28519097193567       -8.37311433125354       15.89865471465136
H           -3.10609127492114       -9.23109200192897       16.53606798727300
C           -4.39052602161697       -7.56094290162377       16.11930237898904
H           -5.07641118567920       -7.78601932121913       16.92785016026552
C           -4.61984785187849       -6.45454793534318       15.31653949136866
H           -5.48297779000794       -5.82421507586113       15.49558525056443
C            4.40723601579752       -4.05550951765599       12.20916195427428
C            3.71274840237344       -5.04041975485945       12.90680960463992
H            3.27806549875096       -5.87306677727478       12.36855980745504
C            3.59385714631953       -4.94116296175323       14.28154376057582
H            3.03656959229870       -5.68546786714853       14.83858224165090
C            4.19502544591746       -3.86170298690301       14.91414327480514
H            4.12706136477986       -3.73712716779685       15.98801989626048
C            4.88738423665114       -2.93674588716703       14.14676184663262
H            5.37794586050963       -2.08536737942527       14.60935993322047
C            5.55014279286729       -5.47501559789174       10.07408877105071
C            6.64354358680189       -5.47474004072131        9.21561060617775
H            6.88894989680556       -4.58647426728575        8.64795989092131
C            7.39410384974989       -6.63295698774395        9.09980265983856
H            8.25323324204577       -6.66910016529565        8.43962763928171
C            7.02790388752869       -7.74052737819165        9.85243774965272
H            7.59922285264869       -8.65948580103477        9.80461107102996
C            5.91517569253905       -7.65243104649563       10.67720969859822
H            5.60282506131525       -8.49714706575987       11.28272685859566
C            5.35096078218061       -2.57723590777968        9.91583754792298
C            4.79590424737285       -1.69206016927439        8.98950233207871
H            3.82666055627026       -1.91167866422956        8.55658910835089
C            5.47959538697445       -0.54778185349337        8.60793975042095
H            5.03948034368715        0.12661177460902        7.88143712720131
C            6.72387376761655       -0.26829577261493        9.15692581033598
H            7.25953863793334        0.62601721650201        8.85998998342042
C            7.28015301920959       -1.13635312830199       10.08707188850621
H            8.24962273682503       -0.91858403241944       10.52008986162703
C            6.60191779098079       -2.28515281928207       10.46428192072853
H            7.03780813000148       -2.95451162237636       11.19649049290856
C            0.20721750553009       -2.83615239559170       14.94721765046668
C           -0.24093651289893       -4.15054978052165       14.92361128750565
H           -0.67563784004183       -4.55740660933978       14.01906315817445
C           -0.10317933790170       -4.93193845607363       16.05996711231039
H           -0.41924564379575       -5.96849062916766       16.05312043242723
C            0.46603371715546       -4.35438333623959       17.18461449971294
H            0.59999293810296       -4.92570091917903       18.09478475813634
C            0.87406691021620       -3.02782265239204       17.12960685018786
H            1.32221291315353       -2.54514362570616       17.99253263775863
C            1.80125720166371       -1.01891068058476       13.34401957713919
C            2.58017228213575       -0.45302679082223       14.34415070930157
H            2.24896685578995       -0.49273785909970       15.37419170517347
C            3.78278326990904        0.14408868582153       13.99611030191362
H            4.41331850768185        0.59414557739543       14.75393332019591
C            4.15728195743452        0.15441820813083       12.66045905801526
H            5.09056227107971        0.60446995144977       12.34551061810794
C            3.32062693438985       -0.43468984251382       11.72478735302125
H            3.58480717873451       -0.45011993305106       10.67272421736196
C           -0.88233180328251       -0.35676970780202       13.87596929224575
C           -1.66116265779828        0.19344932699840       12.85638681682841
H           -1.67795747320705       -0.28028443676050       11.88028191419515
C           -2.41100242401601        1.33793155689230       13.07985886857441
H           -3.00896689036450        1.75568837804311       12.27784232470496
C           -2.39014419261107        1.94654919880547       14.32768268156065
H           -2.96984295822232        2.84512176312754       14.50312536521399
C           -1.62743890989124        1.39920915839222       15.35186048888993
H           -1.61215177272679        1.87000457227523       16.32797404689460
C           -0.87706553258608        0.25452744591374       15.13115216605950
H           -0.28413408472850       -0.16714748534774       15.93473164911760
Cl          -5.74923329623695       -5.14452260658227        8.01176081951815
Cl           0.83170586416011       -7.15634585164389       13.56335117517202
Au          -0.80714639173984       -5.00734216731624        6.15335304160112
Au           0.87954430635200       -7.23638891444567        5.87632867090763
Au           1.90811840612523       -4.63326690355412        6.84029484120445
Au          -2.41472458338438       -2.80021012937036        6.46836143872251
Au           1.11673421584030       -4.99090087543693        4.01259818827209
Au           0.32620230816626       -2.59664160854990        5.52395294731582
Au          -1.87747367229444       -7.45234216457699        6.89955201572270
Au          -1.70045438594383       -3.79057236451885        3.74038210762880
Au          -1.37112117086900       -6.92986089634897        4.08337098030660
Au          -3.47937899032703       -5.36501488287246        5.52287548651856
P            1.50717415325339       -0.57536078318953        5.14418369682841
P           -3.61914808340651       -0.76853971316886        6.87125788926342
P            2.59643741974197       -4.87383304631643        2.10748680899300
P           -5.79551621240116       -5.50733950688614        4.91220593920171
P           -1.52533714904415       -7.79034103740212        1.83904432339151
N            1.44618283572362        0.00301711456203        7.79698940653571
N            1.24890908632150        1.82019236824332        3.97176803997898
N           -4.38855585208674       -1.31038257667097        9.33661751277152
N           -5.22126505151292        0.93470705314452        5.58294499839918
N            2.98132143587352       -7.40056058419417        1.66298996051752
N            5.22963649476173       -4.76642823822322        1.61844698272338
N           -6.33637320215975       -6.56232525664272        2.47600374354788
N           -6.54159979630943       -3.03125311151021        4.52308534441639
N           -2.11387114849382       -7.29562663584366       -0.73652057965018
N           -3.52800248233733       -8.57342400152585        3.24139666030104
C            1.93279945753593        0.41397150473186        6.62218091290696
C            2.73319472979111        1.55011355756613        6.53176207902242
H            3.11323918375175        1.85719149683135        5.56571896627086
C            3.02116758242905        2.27702110756530        7.67533573155854
H            3.64550326441815        3.16094762941767        7.62378136398496
C            2.48815315565343        1.84798298798601        8.88176390581225
H            2.67712168481750        2.38493099726023        9.80264672274125
C            1.70615302764943        0.70562914837207        8.89618289103759
H            1.26822241523509        0.33752467449936        9.81551758646071
C            0.70659213622995        0.60043179378111        4.01382661392149
C           -0.39234132061627        0.24268978793460        3.24238300483032
H           -0.80292552929254       -0.75673656816866        3.30446741512349
C           -0.94299492170098        1.18327126595988        2.38442568685185
H           -1.79762856544336        0.92719102519841        1.76909998147743
C           -0.37389182136532        2.44650001030500        2.34054358635296
H           -0.77124887812317        3.21282604519730        1.68659401444266
C            0.72026092329052        2.72212293242565        3.15128461120581
H            1.19020316999745        3.70052702616685        3.14326295239573
C            3.12909906855932       -0.88343202475622        4.39456451718426
C            4.09309750967356       -1.53124594588166        5.17414800482819
H            3.87422091054696       -1.78335151633521        6.20523605484281
C            5.32377169086802       -1.86050288296294        4.63430124782083
H            6.06267844332292       -2.35580302177925        5.25300590431095
C            5.59875288574107       -1.57213168924819        3.30343790098469
H            6.55794358157520       -1.84191395328254        2.87695964149798
C            4.63962847146806       -0.95033223471391        2.51665642369059
H            4.84583776140039       -0.73486027773724        1.47450569370319
C            3.40970393463526       -0.60393058105116        3.05592210713501
H            2.66659964271944       -0.11696881343181        2.43525328052586
C           -4.88335145639979       -0.89134997094852        8.16391318485466
C           -6.24338049742510       -0.67338789889162        7.99033111578963
H           -6.61696144157863       -0.33973213600790        7.03089028292061
C           -7.10454026864351       -0.88786641382821        9.05581398890245
H           -8.17119325271072       -0.73830427645843        8.93698284514739
C           -6.57288724897380       -1.29639611911662       10.26867345484226
H           -7.20682561794474       -1.47551471289041       11.12784649286997
C           -5.20535945031369       -1.49527927851159       10.36801840920413
H           -4.75209556576860       -1.82568921401316       11.29707747174042
C           -4.39805753608421       -0.09791326697426        5.37632282994158
C           -4.09476546550927       -0.57503995517286        4.10837203738336
H           -3.43004568367141       -1.41985670198559        3.98839943515068
C           -4.65784037830941        0.04605906852299        3.00400144537524
H           -4.43118728282234       -0.30812941957030        2.00505203323395
C           -5.50838475546115        1.11979954436209        3.22079468540247
H           -5.97073249132500        1.63886926101672        2.39033596238963
C           -5.76663837358324        1.52587051695473        4.52545939687245
H           -6.43205061911958        2.35891892580110        4.72941447939127
C           -2.55316769548997        0.61224963658549        7.39519787136557
C           -1.74441101726730        1.20197339949804        6.41877681409906
H           -1.81634934313434        0.86752549845698        5.38929453044090
C           -0.86240337217267        2.21682291789299        6.75085013394699
H           -0.24968766790195        2.67043474723801        5.98022849569649
C           -0.76036619917992        2.64634415609590        8.06745011012559
H           -0.06803924295632        3.43807601097126        8.32878988670057
C           -1.54799552491401        2.05761044393820        9.04635314888269
H           -1.47345020407356        2.38703033205200       10.07660587642532
C           -2.44146787133723        1.04981371910578        8.71541622202752
H           -3.06018368442480        0.61655762503009        9.48985881539052
C            2.57415803856947       -6.31024349555259        1.00239247017080
C            2.14810785880745       -6.34764217264292       -0.31917878822079
H            1.80046272219380       -5.44458721917920       -0.80580371630278
C            2.19177689026936       -7.55735140256339       -0.99581348184492
H            1.87122582499727       -7.62279174728906       -2.02918339429451
C            2.66174430984093       -8.67553737063440       -0.32397614488492
H            2.72615312526891       -9.63526022705081       -0.82122388794811
C            3.03926463093386       -8.55346946939479        1.00687191418197
H            3.39300781988355       -9.41365676207173        1.56702841383568
C            4.34543385540587       -4.87609823550600        2.61302398414657
C            4.73098970367276       -5.01789185427353        3.93801531456526
H            3.98527927801325       -5.09678450758994        4.71669344218149
C            6.08225914784828       -5.04971626660186        4.24864925334726
H            6.40033042698736       -5.15578140569163        5.27942609817448
C            6.99582754699393       -4.93539447047253        3.21245458567791
H            8.06146204312682       -4.95472005419664        3.40480934506012
C            6.52405248548506       -4.79187807113447        1.91258206710487
H            7.21072675111551       -4.69792892734485        1.07707749391251
C            2.38801625732594       -3.42467875667144        1.03225195486475
C            1.28797244353947       -2.59363567204641        1.25049521709208
H            0.60594759307129       -2.81099194018355        2.06362760233212
C            1.05096303516988       -1.49797372355151        0.43598222647306
H            0.17915849153072       -0.87947514130512        0.61378698804087
C            1.92584220479529       -1.20661600935617       -0.60109828200064
H            1.74675120225284       -0.34863896738954       -1.23851459670506
C            3.03118088602839       -2.01878693001471       -0.82172850703810
H            3.71707797955952       -1.79371141173228       -1.63026620488155
C            3.26049166198797       -3.12518078733874       -0.01896134979818
H            4.12362373098330       -3.75551394392808       -0.19799488767286
C           -5.76661616681436       -5.52421549965548        3.08841279046090
C           -5.07214464084137       -4.53929499124119        2.39076258192673
H           -4.63747574749301       -3.70663846454756        2.92900996290645
C           -4.95323578230682       -4.63856406693451        1.01603087774485
H           -4.39595737327688       -3.89425332697751        0.45899123436730
C           -5.55436818133898       -5.71804689068155        0.38343659094036
H           -5.48638518962216       -5.84263444209574       -0.69043747359773
C           -6.24671376522032       -6.64301213898704        1.15082010611540
H           -6.73724993166779       -7.49440689812644        0.68822505038297
C           -6.90951615644060       -4.10471289290743        5.22350329942036
C           -8.00291077672058       -4.10499350082814        6.08198913406283
H           -8.24831234281613       -4.99326148805615        6.64963832598885
C           -8.75347746410184       -2.94678052845139        6.19779894296094
H           -9.61260313568101       -2.91064123180518        6.85797886596847
C           -8.38728831300969       -1.83920865511793        5.44516083126750
H           -8.95860948720078       -0.92025187199316        5.49299329920851
C           -7.27456463731987       -1.92729941003009        4.62038231020936
H           -6.96221886846493       -1.08258057518324        4.01486639598806
C           -6.71033232854116       -7.00249151141519        5.38174491744446
C           -6.15528010868626       -7.88766147740563        6.30808888862137
H           -5.18603814045609       -7.66804305565090        6.74100523230589
C           -6.83897344313067       -9.03193710841391        6.68965587995619
H           -6.39886105714776       -9.70632630856877        7.41616412845454
C           -8.08325055751775       -9.31142524211530        6.14066848779033
H           -8.61891839661194      -10.20573447695302        6.43761033523014
C           -8.63952581369260       -8.44337347876182        5.21051474918567
H           -9.60899496408097       -8.66114401318386        4.77749620820731
C           -7.96128817928862       -7.29457724922446        4.83329856266887
H           -8.39717586468262       -6.62522361798095        4.10108363221618
C           -1.56660284464521       -6.74356791125463        0.35036492791741
C           -1.11842102601894       -5.42917958396064        0.37395582497986
H           -0.68368795358197       -5.02232895567453        1.27849162546092
C           -1.25619531854513       -4.64779014229325       -0.76239751091662
H           -0.94011091746588       -3.61124348114368       -0.75556090547900
C           -1.82545312180555       -5.22533499827837       -1.88702736515916
H           -1.95943347420664       -4.65401351322856       -2.79719213328482
C           -2.23350551487367       -6.55188931824769       -1.83200783311116
H           -2.68168481940286       -7.03456043749387       -2.69492075884300
C           -3.16063228795037       -8.56081956382936        1.95356519402567
C           -3.93953251915388       -9.12672841167035        0.95343605170826
H           -3.60832479632260       -9.08701973976009       -0.07660419603525
C           -5.14213422809087       -9.72386284079503        1.30147661647920
H           -5.77265747080331      -10.17393906077766        0.54365503014838
C           -5.51663859858215       -9.73418657735620        2.63712620298331
H           -6.44991129959342      -10.18425403446061        2.95207467952265
C           -4.68000000055877       -9.14505177506337        3.57279569477148
H           -4.94418486846917       -9.12961731679753        4.62485753118635
C           -0.47704374111947       -9.22293749828073        1.42162466990383
C            0.30178249710282       -9.77315318336841        2.44121231100718
H            0.31856912035401       -9.29941708317371        3.41731690569824
C            1.05162569469770      -10.91763474807840        2.21774545213937
H            1.64958578072488      -11.33539009336590        3.01976596645781
C            1.03077447913933      -11.52625476169628        0.96992236280185
H            1.61047482684700      -12.42482736337727        0.79448420552898
C            0.26807386206284      -10.97891757065560       -0.05426036392173
H            0.25279192526907      -11.44971589153606       -1.03037267152074
C           -0.48230213646265       -9.83423614309791        0.16644191950152
H           -1.07522954051978       -9.41256269806111       -0.63714151237217
Cl           4.38985277591295       -4.43522129162904        7.28570701257931
Cl          -2.19110894294413       -2.42338267562989        1.73420675093923
