340
 energy: -420.975433083554 gnorm: 0.000152092324 xtb: 6.5.1 (579679a)
Au           1.84818362821589        8.93626873368587       22.49678970328675
Au           0.31615365721778        9.48078819339902       20.16572817887312
Au          -0.00049041901532       11.08911533864744       17.98370055274312
Au           0.78597581960680        6.92063360933494       20.98656569160937
P           -0.00019402668173       11.08892790523219       15.60031722174798
P            1.31501668847131        4.73826456274693       20.19156770971346
C            0.09804781096577        9.29654142528362       14.95093045190571
C           -0.82580032692404        8.43195436063985       15.82939196912340
H           -1.87910640615055        8.61642128713694       15.63944946254759
H           -0.63497106734713        7.37656296528438       15.62506897645862
H           -0.62652911792372        8.61746415039804       16.88446350027656
C            1.51282781706597        8.74560610718286       15.19492894550082
H            1.82680614984277        8.93316136109287       16.22163956722352
H            1.51054664098609        7.66511640445395       15.03649680278155
H            2.23998650296516        9.17380164612395       14.50875629260563
C           -0.26227216886233        9.07205477493238       13.47730863555285
H           -1.30855490927811        9.30094570852631       13.28410084073619
H            0.35459253160947        9.68001389541834       12.81839104924678
H           -0.09781152618960        8.02260719831066       13.22292164889269
C            3.19202757950666        4.43552500081689       20.36134076258869
C            3.91387795292207        5.73104154827765       19.94473610572692
H            3.87356592358244        5.90790399374394       18.87387411482648
H            3.47530722058473        6.58862193970173       20.45400302042984
H            4.96625791518872        5.66610790228833       20.22811283358015
C            3.54213212696987        4.24260328953289       21.84618139787106
H            3.09914658978748        5.03316071383223       22.45174554906416
H            3.21670709301352        3.27413913418106       22.21906510341611
H            4.62608629612475        4.29268089505176       21.96917315781173
C            3.77865424713067        3.26141788660464       19.56812498164694
H            3.69724731049144        3.42611426852826       18.49540395565650
H            4.83871105633189        3.15788978481792       19.81028573597794
H            3.28261726344019        2.32485259089372       19.81536821856381
C            0.82108611793375        4.58056895157367       18.35482260803975
C            1.79048507236738        5.41178041900444       17.49800522250208
H            1.90865867242106        6.41277246476043       17.91273693701071
H            2.76543179446423        4.93755582826502       17.41105336891677
H            1.38438042796581        5.51209780360759       16.48918728359947
C           -0.55077478224203        5.25970423044326       18.18284387662090
H           -1.36248113157153        4.67975571407205       18.61232911698826
H           -0.54539110216543        6.24530418944962       18.64754141348354
H           -0.76280761672863        5.38321300310566       17.11908305993265
C            0.37740230082134        3.42115093104462       21.20662442001668
C           -1.11158753082786        3.45116448385482       20.82395510408402
H           -1.49229919754951        4.47230260467205       20.83955456928555
H           -1.28882817836356        3.01245819176305       19.84462704437589
H           -1.68165093078302        2.86882440785118       21.55096879930216
C            0.42135337424250        3.85640082222523       22.68373374566346
H            1.40324284856994        3.72685920607444       23.12967348272940
H            0.13402641337937        4.90333914790318       22.77749937773923
H           -0.28390501632584        3.25464916429089       23.26040187782080
C            0.87610380414330        1.97524780050890       21.09575102609247
H            1.88043790842788        1.86793969183768       21.50088627208704
H            0.21389920532541        1.32163176074154       21.66790539273914
H            0.87896040576453        1.63274621368747       20.06272873465007
C            0.75213665366635        3.16313078235077       17.77371921377478
H           -0.03208375151140        2.57633941148372       18.24823194686108
H            0.52550073160203        3.22257856640925       16.70686259774237
H            1.69812063391033        2.63775716105503       17.88937596875999
C            1.50302906670726       12.07002986166269       14.95088106704602
C            2.71357371319740       11.70250580040344       15.82963455117813
H            3.08046541401250       10.69800450117044       15.64009066265173
H            3.53220611000950       12.39536825694593       15.62518993095072
H            2.45313518841626       11.78269412244805       16.88464172613119
C            1.27272006269138       13.57080238983065       15.19441425444048
H            0.95313291626400       13.74923103289079       16.22102096471813
H            2.20961750814834       14.10902817815064       15.03598441233293
H            0.53842480475881       13.98624437083153       14.50800124640061
C            1.87782400662395       11.86980719554188       13.47737315529645
H            2.20280017162082       10.84920802977159       13.28451162911682
H            1.04297288733477       12.09983014132750       12.81826594217356
H            2.70445892304012       12.53690910796320       13.22291293214697
C           -1.60137570710422       11.90003667087811       14.95044862953782
C           -1.88845910573150       13.13239851253732       15.82883877343262
H           -1.20202237166958       13.95236981049738       15.63906891795435
H           -2.89782595580507       13.49481069792221       15.62426225465740
H           -1.82769699478305       12.86706836449258       16.88392545081403
C           -2.78596282402864       10.95026651248326       15.19408398349615
H           -2.78082661603662       10.58455731652627       16.22078968960823
H           -3.72050811520679       11.49248814893853       15.03538567377783
H           -2.77850873431495       10.10644266995706       14.50789872749737
C           -1.61518470583914       12.32432932308526       13.47682365026874
H           -0.89375533954698       13.11598587011363       13.28382867571392
H           -1.39691733712250       11.48612650268987       12.81797258618092
H           -2.60618500538072       12.70663148045474       13.22214003878492
Au           0.93965430308907       13.76540363474984       22.49745061369826
Au           1.23421529794459       12.16673275892835       20.16588752957342
Au           3.21654380473762       13.85357302916250       20.98700197450045
P            4.84202532725012       15.40284153100219       20.19193185973885
C            4.16580379128451       17.17984632680294       20.36116595876480
C            2.68298490915180       17.15720269635231       19.94436250536098
H            2.55011741555069       17.03362472943256       18.87350961455934
H            2.15948169987090       16.34873227472018       20.45373725659637
H            2.21302854872081       18.10113947034925       20.22746421182636
C            4.15763980917085       17.57987102746586       21.84590729309956
H            3.69436606674010       16.80112862155871       22.45159963210685
H            5.15902634123969       17.78231688756087       22.21887878044774
H            3.57232467365031       18.49362485388414       21.96859435717997
C            4.88946793852014       18.27470086058670       19.56778501884941
H            4.78769111386119       18.12159211170457       18.49508700148226
H            4.44911364026566       19.24458439704273       19.80964026221517
H            5.94854132355049       18.31340733667560       19.81517559962323
C            5.22582209593271       15.05348606529498       18.35532195009540
C            4.02143325917851       15.47728609957089       17.49821972464472
H            3.09537023024450       15.07929060568104       17.91289943957828
H            3.94473682161896       16.55871164433010       17.41100032544628
H            4.13773803440746       15.07518475426991       16.48951442919029
C            5.32351514747208       13.52580433708844       18.18371960555087
H            6.23149563259323       13.11284281566773       18.61348651955565
H            4.46713280209997       13.03784680040388       18.64835525769310
H            5.32276430342100       13.28017821982858       17.12001521314325
C            6.45134551371271       15.24957044873697       21.20724345761241
C            7.16981557910781       13.94491486612224       20.82501014410667
H            6.47577964615723       13.10469169648371       20.84072912772933
H            7.63850764544149       14.01048750978726       19.84573030807795
H            7.95905334080695       13.74252708153733       21.55218588013355
C            6.05221431102896       15.07040433987410       22.68434172737030
H            5.67347629114052       15.98566043929981       23.13000366026294
H            5.28912258478472       14.29819186683067       22.77819215210208
H            6.92586976804407       14.76057513386707       23.26120659488890
C            7.45428321883148       16.40431129381293       21.09622754899335
H            7.04504849731514       17.32787650970699       21.50106181955722
H            8.35132951177099       16.15772216702609       21.66858335431534
H            7.74964179598155       16.57775073079527       20.06320656922030
C            6.48797019932961       15.70225874380108       17.77424969836654
H            7.38815729375871       15.31653976931286       18.24898344664081
H            6.54994509558154       15.47601041342496       16.70745476449387
H            6.47003190280617       16.78422002156294       17.88965237768475
Au          -2.78815312037362       10.56419007067345       22.49748689343111
Au          -1.55088095310469       11.61898339295772       20.16594116633275
Au          -4.00300696551498       12.49212453664228       20.98748995695399
P           -6.15739880573365       13.12501649404866       20.19213730746319
C           -7.35809710232611       11.65084920433846       20.36178029516666
C           -6.59700457695611       10.37791909099679       19.94539645509283
H           -6.42349488244177       10.32432512904054       18.87456848102501
H           -5.63512067896538       10.32897833555746       20.45483274045862
H           -7.17947916712927        9.49901978312406       20.22873563827998
C           -7.70051605255493       11.44421424962305       21.84656735004740
H           -6.79449723181331       11.43260168760803       22.45230701486911
H           -8.37657957281549       12.21030769987505       22.21926810416767
H           -8.19916091620862       10.48045824685157       21.96952536962311
C           -8.66805417376993       11.72985405270674       19.56829887991584
H           -8.48450580588264       11.71794653202278       18.49561495264528
H           -9.28780113612203       10.86360455979560       19.81038462074397
H           -9.23115843357315       12.62774047040570       19.81538321807553
C           -6.04656531612780       13.63148801928143       18.35538729035642
C           -5.81126649515021       12.37629752897340       17.49870080763811
H           -5.00356231385391       11.77347288559237       17.91363326810891
H           -6.70942429494680       11.76909253767478       17.41160734862328
H           -5.52112766318155       12.67776789104928       16.48992276858103
C           -4.77244022491549       14.47995716825058       18.18361221417159
H           -4.86889184498189       15.47290457429743       18.61305048184469
H           -3.92166848556511       13.98249100716197       18.64847110303916
H           -4.55927592759437       14.60179129228789       17.11988464604684
C           -6.82937127760433       14.59564320604432       21.20699592002790
C           -6.05878416408635       15.87009770916780       20.82439266573859
H           -4.98410437625758       15.68920784769397       20.84020794089058
H           -6.34989819945038       16.24288975431426       19.84498484127007
H           -6.27819449483756       16.65500685732349       21.55131595214374
C           -6.47469648759493       14.34002421597818       22.68418544904035
H           -7.07795055688908       13.55450919844497       23.13005706367104
H           -5.42438837722025       14.06533992937459       22.77815941386096
H           -6.64326246813135       15.25171316453072       23.26076917056297
C           -8.33088275357309       14.88671975881600       21.09580516583836
H           -8.92607497772313       14.07062807596853       21.50087014788950
H           -8.56592505672834       15.78705133205868       21.66786073702684
H           -8.62871869038167       15.05544133044086       20.06271371432792
C           -7.23950506485927       14.39990090658615       17.77401115192098
H           -7.35564745664669       15.37248253423408       18.24844190805847
H           -7.07449142819422       14.56638014014677       16.70717669101169
H           -8.16751574506560       13.84336389216084       17.88952139576674
Au          -1.84829019855718       13.24098206897123       22.47244109050556
Au          -0.31600778189783       12.69643765328852       24.80355288698954
Au           0.00038142911092       11.08825995410208       26.98572207239408
Au          -0.78595757055208       15.25663690565221       23.98278395317030
P            0.00022474797369       11.08849083152700       29.36908060858539
P           -1.31508851253042       17.43912500834274       24.77756409192514
C           -0.09774822667894       12.88092124490539       30.01838935794886
C            0.82612570885590       13.74535063199061       29.13980076885876
H            1.87942711707523       13.56073994369452       29.32963021750753
H            0.63546730303320       14.80077441830532       29.34411709694214
H            0.62670918403749       13.55983937469481       28.08475696626874
C           -1.51248122609980       13.43202104060735       29.77448936354153
H           -1.82657718738400       13.24444856228208       28.74781787943321
H           -1.51004812239255       14.51251969684458       29.93286041647273
H           -2.23963061153823       13.00395533062783       30.46075318450930
C            0.26272877139249       13.10544001518872       31.49196840542637
H            1.30900392460996       12.87644464928987       31.68509344030689
H           -0.35414314581804       12.49757897798695       32.15096989923281
H            0.09840538077701       14.15491746823627       31.74632091948557
C           -3.19205106512227       17.74199967471628       24.60749245736089
C           -3.91406954717175       16.44656751061610       25.02406891739927
H           -3.87391944298606       16.26975977390786       26.09494569345021
H           -3.47549491073227       15.58892385784556       24.51491211427589
H           -4.96640417532390       16.51156774059145       24.74053993192502
C           -3.54192035486082       17.93486150053898       23.12258859622657
H           -3.09891817788006       17.14422684795213       22.51713784617080
H           -3.21635460856237       18.90327275515309       22.74969110088959
H           -4.62586086364767       17.88487427751981       22.99944155368412
C           -3.77869602411623       18.91620157513758       25.40055358996122
H           -3.69746620351407       18.75155750360255       26.47329594684135
H           -4.83870703920573       19.01980804502379       25.15822632796342
H           -3.28254062067351       19.85271018220672       25.15333360340346
C           -0.82140875692670       17.59689737869137       26.61436932727218
C           -1.79098966814745       16.76580129010367       27.47109324417273
H           -1.90917416145555       15.76479585565437       27.05639693438322
H           -2.76591561850707       17.24009893425388       27.55787726931181
H           -1.38503977459275       16.66550713492950       28.47997580975128
C            0.55038141076660       16.91767980290730       26.78659027963342
H            1.36219334601416       17.49756013442223       26.35721311472074
H            0.54500823388975       15.93206342592731       26.32192794777856
H            0.76224017679166       16.79419560927842       27.85038877004817
C           -0.37721489924583       18.75608620540260       23.76255044409475
C            1.11171575262455       18.72598424794242       24.14544258394236
H            1.49235098466030       17.70481582279902       24.12996962908046
H            1.28884532533752       19.16474438571908       25.12476636562920
H            1.68193274510887       19.30823025269246       23.41847441388638
C           -0.42098209187500       18.32073638469310       22.28546491979761
H           -1.40279756505564       18.45031317554894       21.83937322390026
H           -0.13371382463522       17.27377182547247       22.19181503697982
H            0.28440139623588       18.92239695484767       21.70885477735471
C           -0.87581817118248       20.20203662283181       23.87324959532344
H           -1.88008608236194       20.30939728810062       23.46796487611341
H           -0.21348091891050       20.85555945643734       23.30114239837740
H           -0.87879331954934       20.54461280149072       24.90624674016814
C           -0.75244622380581       19.01436662875051       27.19539476716748
H            0.03187839129570       19.60107656184918       26.72095364738414
H           -0.52596139882557       18.95497139290591       28.26228634839261
H           -1.69837854002126       19.53979685309100       27.07957484848756
C           -1.50307033401302       10.10761041639266       30.01868809316221
C           -2.71363538174996       10.47524673628348       29.14000985754696
H           -3.08040111574494       11.47979377916555       29.32955698578495
H           -3.53233111332393        9.78248076290869       29.34452887278653
H           -2.45327914230994       10.39500414615997       28.08498621437377
C           -1.27296960578720        8.60679708083808       29.77520988741519
H           -0.95347709883673        8.42827938987206       28.74858916290595
H           -2.20992405453065        8.06869686741947       29.93373143350322
H           -0.53867802540057        8.19129573423785       30.46159130283242
C           -1.87772618610256       10.30794836400273       31.49221600299601
H           -2.20255062427992       11.32859957151726       31.68505736911380
H           -1.04285440847986       10.07784392670522       32.15126862059098
H           -2.70443018846936        9.64096828768881       31.74677125471264
C            1.60135112565780       10.27722017774312       30.01888505705182
C            1.88821616478645        9.04476979721514       29.14054851717583
H            1.20169574292546        8.22489285215084       29.33042413164095
H            2.89755545725430        8.68224963045961       29.34506918712162
H            1.82740300993902        9.31004178673706       28.08545017078148
C            2.78603829866045       11.22682781779510       29.77510411505452
H            2.78087357705965       11.59247063198002       28.74837487657630
H            3.72052735469654       10.68449986438448       29.93377067626060
H            2.77873928352389       12.07069741425957       30.46123481503443
C            1.61522302264787        9.85300922541075       31.49253311401420
H            0.89370899315991        9.06145414893240       31.68562808498856
H            1.39711354520207       10.69127608503586       32.15135479707816
H            2.60619513592995        9.47059588489024       31.74715989563148
Au          -0.93992256379895        8.41183569257305       22.47202958143178
Au          -1.23420319755227       10.01050377156930       24.80359763908538
Au          -3.21665383179560        8.32357071433690       23.98245137761637
P           -4.84203182607503        6.77435174531640       24.77754569081961
C           -4.16577394315507        4.99740173484613       24.60792633465415
C           -2.68289121430427        5.02001006343061       25.02450280834753
H           -2.54985969069011        5.14342471158284       26.09535414835986
H           -2.15947946406447        5.82856549677783       24.51517011414463
H           -2.21296431569827        4.07612354403530       24.74118424478413
C           -4.15783828262594        4.59760435523088       23.12312293824013
H           -3.69467077853776        5.37644745182092       22.51747875480593
H           -5.15928021461568        4.39520142700341       22.75027714980044
H           -3.57252826358136        3.68387864358907       23.00020441197751
C           -4.88929663706940        3.90241985660475       25.40125868677658
H           -4.78734363202690        4.05536696105006       26.47396329853467
H           -4.44896948378954        2.93257924289402       25.15918250630776
H           -5.94841039693314        3.86373744327788       25.15403689064314
C           -5.22551318675329        7.12345750367768       26.61426572266520
C           -4.02095937529993        6.69958154678057       27.47109794287899
H           -3.09498319376199        7.09766433541930       27.05630759453978
H           -3.94421275547214        5.61814628627591       27.55815326623769
H           -4.13709803380241        7.10154019773996       28.47987907673222
C           -5.32324103611358        8.65111072480354       26.78609965043335
H           -6.23134505824244        9.06408159574240       26.35660277421145
H           -4.46699258408268        9.13917910872163       26.32133381951478
H           -5.32225853332109        8.89658961540615       27.84983792618918
C           -6.45149822463491        6.92777541041503       23.76249404169464
C           -7.16993356665620        8.23235461199691       24.14505064624945
H           -6.47591592101884        9.07259366116198       24.12937007830898
H           -7.63848004221526        8.16660715654446       25.12438851678885
H           -7.95928147454528        8.43484733765773       23.41802394135386
C           -6.05258976921739        7.10718072610344       22.28536516501121
H           -5.67388981229184        6.19200549128804       21.83950497684356
H           -5.28953538696435        7.87943082864230       22.19152097978282
H           -6.92634104369985        7.41707220620183       21.70867906041028
C           -7.45438561000318        5.77299082919519       23.87349165566136
H           -7.04519597460534        4.84950038870498       23.46844100384761
H           -8.35153170817044        6.01965308429373       23.30132408424399
H           -7.74956824071388        5.59937897387774       24.90653418299356
C           -6.48753715129794        6.47454712245059       27.19545100363500
H           -7.38781789466762        6.86028816461976       26.72091249610339
H           -6.54934956009926        6.70065137889909       28.26228580899324
H           -6.46956857712132        5.39260205617344       27.07990182134660
Au           2.78797624875747       11.61324231184061       22.47190564145426
Au           1.55086897983826       10.55841673854962       24.80364576875551
Au           4.00280663193885        9.68519754094712       23.98189169330323
P            6.15730055012689        9.05214997521687       24.77724104779023
C            7.35811966140961       10.52620331388750       24.60743758420907
C            6.59713440595428       11.79923257353790       25.02371511951958
H            6.42362972537443       11.85293049478498       26.09453852592095
H            5.63525307806106       11.84820730086130       24.51427675997121
H            7.17967835860038       12.67806110054604       24.74029903471162
C            7.70052839296096       10.73267663732948       23.12262611316731
H            6.79449924008858       10.74431446581739       22.51690259346895
H            8.37651910493818        9.96649303026755       22.74997930639601
H            8.19925495489921       11.69637832841785       22.99957484879906
C            8.66808792754993       10.44717546020202       25.40089845943688
H            8.48456425871717       10.45920037662182       26.47358514683071
H            9.28789588083793       11.31335442351966       25.15871632497571
H            9.23111828091832        9.54922240797123       25.15388766587415
C            6.04650767310590        8.54584052003367       26.61403828961536
C            5.81133426544922        9.80111998877792       27.47062822946290
H            5.00365683127533       10.40396760713406       27.05567735643679
H            6.70953814093701       10.40826872404842       27.55763601837966
H            5.52121377450047        9.49975387269040       28.47944261983643
C            4.77232397485191        7.69748474173809       26.78593534557650
H            4.86867113194741        6.70450208295210       26.35655631543730
H            3.92156992929750        8.19498999237400       26.32108582201729
H            4.55920315609319        7.57573920768857       27.84968145618181
C            6.82913975501091        7.58138556870187       23.76249163474355
C            6.05846619477359        6.30702217408421       24.14522334142349
H            4.98379933890602        6.48798919696673       24.12941574879769
H            6.34957494428572        5.93429243085530       25.12465624573946
H            6.27780338361211        5.52203441021909       23.41836298261585
C            6.47444327721745        7.83690297966615       22.28528956506581
H            7.07774796011516        8.62232936845476       21.83933100737350
H            5.42415524801508        8.11166701569097       22.19132408347469
H            6.64291380759074        6.92514966017083       21.70878016648843
C            8.33063130951203        7.29019918068970       23.87366053584058
H            8.92587682135144        8.10621299343915       23.46851733962536
H            8.56558521319865        6.38980571027299       23.30166618012862
H            8.62848282024828        7.12153171151286       24.90675624358502
C            7.23940585731177        7.77738344300892       27.19544010950218
H            7.35544962537311        6.80474877439338       26.72109397287711
H            7.07441766217332        7.61101571164206       28.26229588112837
H            8.16745779314210        8.33383381166705       27.07984455975765
