411
 energy: -579.576098248613 gnorm: 0.000520298858 xtb: 6.5.1 (579679a)
Au          23.45383737372916       11.35025195293402       22.60267803693578
Au          22.41547489811842        7.73209125541488       20.58999788205542
Au          22.67318221603128       14.68529954047897       21.46733925865259
Au          21.01202569649178       12.27331686829279       20.98745324879105
Au          20.27088283874035        9.52231819816504       19.34316471716912
Au          20.86794782668658        7.52776447567392       17.23178161564221
Au          20.41011629974262       16.02963616810365       22.69822975047568
Au          20.79586610602959       12.61234679251568       23.72531583822067
Au          20.31394776437046        9.46054360160521       23.25644168383428
Au          19.28346833912922        7.32790043189500       20.69356269539561
Au          18.10310661330718        6.65479608503892       17.44441195086082
Au          18.43363067084307       14.08904493394743       25.21462349805249
Au          18.76507297635105       13.48374242151983       22.26400027162628
Au          18.50045303197496       10.75722633574915       21.27391077484917
Au          17.48509790774110        8.81076582939593       19.44008377949053
Au          16.45960176800894        6.20104889668525       20.71585540459882
Au          15.96196352372004       11.86886553614446       20.44451458012387
Au          18.23700436394330       10.96985802675612       24.20101112944931
Au          17.75467764996568        8.49131563347468       23.06649447362133
Au          20.95783620581751        9.71076533539868       26.09316374495519
Au          19.99665905075290        6.73411753816798       24.37464915422858
S           24.40621515197837       13.51576085697002       22.58385147896542
S           22.73828825362762        9.07280977678477       22.56211220494757
S           22.59616028795294        6.56222506913999       18.51822070532388
S           21.04504898409261       16.07686515562401       20.40624310580940
S           22.04623505524981       11.20449750127957       19.01984393681860
S           18.99751019026380        8.32284084210183       16.00196806368364
S           16.38741674996979       13.80950260704195       21.68751432621469
S           15.30633749734841        9.94333092076546       19.26946985026703
S           19.98661509504202       15.87004736474487       25.02485287696487
S           16.73020660418361       12.49247615030889       25.37411195479465
S           15.62164744889967        7.42569229582935       22.51999900207669
S           17.22575672232517        4.95883587249452       18.85345902380424
S           22.31453829227716       11.49616867348558       25.33598981709305
S           19.58867925746504        7.79757704165653       26.48207998140213
S           20.73733516673884        6.03534756922028       22.22675213045577
C           25.71938606750338       13.43180380913413       21.34332904566537
C           26.22832247835031       14.85489563586380       21.10406584528133
H           26.55797239362398       15.29380597415618       22.05004566605779
H           25.41318005015207       15.47308676732960       20.71547422054205
C           27.38598702783630       14.82329076353796       20.09879998959296
H           27.74480091510906       15.84635608183317       19.93122911789357
C           26.89566178942359       14.22796705582560       18.77375644737861
H           27.71155697513725       14.21580376609364       18.04466412096932
H           26.08719837519121       14.84304698009771       18.36537184080565
C           26.39084341494398       12.80185572687616       19.01948255202425
H           26.03304278739114       12.37144655802284       18.07547353474079
C           25.23456668758486       12.83765168561017       20.02288388639870
H           24.41623647022921       13.44579620758029       19.62844305430320
H           24.84264492295380       11.82844815675551       20.18186877119905
C           26.85324581531557       12.57353554243954       21.90695419057637
H           26.48753241418369       11.55840018926764       22.08950476161201
H           27.18864238773179       12.98532280021035       22.86307096622129
C           28.52529815283381       13.96527548829164       20.66132456507613
H           29.36086449428460       13.94533480958005       19.95493907207850
H           28.88754582668516       14.39614354909369       21.59992535619969
C           28.01336197392827       12.54056282728459       20.90349731124520
H           28.82393937975823       11.92364234020957       21.31064886846562
C           27.52465512154207       11.93774830521614       19.58195226323239
H           27.16285901061413       10.91941534278352       19.75440244683581
H           28.34908453609560       11.88635557233443       18.86431569629968
C           24.12949475148981        8.22978852769123       23.37610545317601
C           24.41089295358294        8.84589115789171       24.74227781464664
H           23.53621904358904        8.72908981087758       25.38890997351284
H           24.59944160892053        9.91737191687779       24.63818829943718
C           25.62708260905683        8.15852040161775       25.37467526394494
H           25.82213324673789        8.61092073676202       26.35472989711616
C           25.34179025251995        6.66323594160950       25.54601664488239
H           26.20502982373301        6.16702334425162       25.99982573407333
H           24.48632455018504        6.52234367215527       26.21144476331299
C           25.04337027272721        6.04627487564837       24.17601970272733
H           24.81831872711193        4.97912230119472       24.29370511548879
C           23.83073205703436        6.74426962073698       23.54822654454916
H           23.60490199911060        6.29488828315076       22.57790452054587
H           22.95000774399334        6.61319266590233       24.18328455583956
C           25.35149864870104        8.40471723882402       22.47468895876687
H           25.14461826045936        7.97906641241561       21.48872689173873
H           25.55788999397002        9.47015108705428       22.33775765775341
C           26.85056588334628        8.34295404129392       24.46991350661686
H           27.06804126868687        9.40878572366698       24.34813657771258
H           27.72549800116547        7.86940572241195       24.92534962317941
C           26.56378696238443        7.71197342937044       23.10286972276054
H           27.43251071466489        7.84431673134303       22.44627316036218
C           26.26316133611211        6.21768727410754       23.26375925373916
H           26.06278715780488        5.77220637461360       22.28415341809633
H           27.12774954375223        5.70598112500757       23.69714973136123
C           24.13403878641200        7.18870194041391       17.79896949004086
C           24.24965478253055        8.70839994494964       17.89522093319419
H           23.41166105869839        9.17824349672290       17.37395792051672
H           24.19767982326347        9.02555122408175       18.94072392603420
C           25.57641036347249        9.16343389057902       17.28075391010620
H           25.64931433175381       10.25565258552777       17.35550738444083
C           25.62586325188713        8.74781708487748       15.80674800701898
H           24.80199525073888        9.21854120748921       15.26075724778329
H           26.56471550961919        9.08220123470963       15.35483941616290
C           25.51282830306809        7.22193550961502       15.71103266474093
H           25.54221683091310        6.91655073937485       14.65782128293612
C           24.18407868600885        6.76804507873419       16.32883750200454
H           23.34727629828502        7.22414038218447       15.79049030832822
H           24.08009692334949        5.68216551429594       16.25015221836484
C           25.29375888863509        6.53628404669621       18.55441713913580
H           25.25099201407699        6.82357856733125       19.60924718299481
H           25.20272792318638        5.44764122106252       18.50088303016204
C           26.73710413605353        8.51615479065716       18.04413079339881
H           27.69255028606559        8.85068941817046       17.62875277190068
H           26.70219119594698        8.81674633886425       19.09638006427114
C           26.62336688227564        6.99123963392331       17.93956934402841
H           27.45161067697941        6.52304752924954       18.48566602623953
C           26.67702171421590        6.57008548090693       16.46639266908401
H           27.62848764347273        6.88139541004697       16.02439986848745
H           26.60913077376827        5.48058168055083       16.38742523391291
C           22.04140194077174       17.55991723806996       20.08359460031442
C           22.76200728936925       18.07685313107786       21.32727289965939
H           22.03079787696760       18.32309809954823       22.10337702919148
H           23.41781289330069       17.29737419536433       21.72540554069989
C           23.58892044341572       19.31708175143100       20.96917301625355
H           24.10266236824826       19.67708178393323       21.86901725800451
C           24.62422531493962       18.94809437261135       19.90033365234057
H           25.29447108292229       18.17179391764828       20.28348040724409
H           25.23094264084520       19.82375864054574       19.65040904780022
C           23.89865238063023       18.43907711038024       18.64976511424845
H           24.63444434139521       18.16926034464085       17.88218464997658
C           23.07146417720164       17.19975697936621       19.01023494719282
H           22.55975296386303       16.81642103869351       18.12285903748242
H           23.72708642222379       16.40784367110001       19.38465323966909
C           21.11396916452590       18.65266950703668       19.54604673933843
H           20.59139408225778       18.28520813972218       18.65876040366853
H           20.36604353870318       18.90663338564557       20.30255404736949
C           22.65981312730569       20.41294554526532       20.43513471538207
H           23.24037356142361       21.30713683740796       20.18859148777111
H           21.92789523226131       20.68659048559214       21.20161898595669
C           21.93939828730850       19.89560131556360       19.18518113437778
H           21.26691869917448       20.67247801932044       18.80113469355692
C           22.96947692762434       19.53215276354775       18.10953523759413
H           23.55287212874179       20.41714366275979       17.83764048311849
H           22.45890719658043       19.17525573386632       17.20960126446090
C           21.51508246906707       12.18723400461507       17.60244366624843
C           22.39121133086067       13.44076189077753       17.54186608497449
H           22.24788473235717       14.03071746191681       18.45175509623828
H           23.44427512261144       13.15003598191580       17.48924533978865
C           22.01257409040174       14.27604465869547       16.31345086337194
H           22.64356385442088       15.17325958877274       16.28013827335592
C           22.23212492467435       13.44729958974548       15.04277944828734
H           21.97331612982859       14.04081640772790       14.16048567111949
H           23.28605294568011       13.16304163855698       14.96117118563357
C           21.35577854243203       12.19110675088173       15.10286494395507
H           21.51334294943965       11.58828187908664       14.19949951514987
C           21.73335119959333       11.35893528789058       16.33374986108128
H           22.78055797608940       11.04947356818133       16.27073538948116
H           21.11728736023186       10.45583761518371       16.37548879486885
C           20.04727036384917       12.59705144886254       17.69480111407313
H           19.41873146550366       11.70369798620132       17.75479862187553
H           19.88469219473344       13.17783493185142       18.60743266668589
C           19.66749106920560       13.42927528104214       16.46710341042503
H           18.61210450459591       13.71880143544897       16.54105430307860
C           20.54053592516497       14.68826371824555       16.41847332453782
H           20.26007313343245       15.30693299927493       15.56066111080217
H           20.39004242944873       15.28051624722104       17.32750882347746
C           19.88075862907192       12.59312357981587       15.20004703290725
H           19.58772761165080       13.16870062222795       14.31680848350760
H           19.25949835822407       11.69259030295275       15.23930736162164
C           19.06679412754174        7.54869254386103       14.36308601566864
C           19.52618772857807        8.63859341443049       13.38998388552723
H           18.84469455967954        9.49210963174674       13.44564440331630
H           20.52328128392867        8.98756502685696       13.67434127053205
C           19.54952790294399        8.07280809347993       11.96411040911404
H           19.87541499038907        8.85810881299077       11.27110133261691
C           20.52726028268127        6.89376688350811       11.89999561435227
H           21.53440102062875        7.22984943935403       12.16602261741700
H           20.56331135464615        6.49341179410847       10.88224535144691
C           20.06718918228198        5.80295968422695       12.87398590755618
H           20.76864779366265        4.96035617798162       12.83938815380472
C           20.03647188401171        6.36985720255514       14.29907541613665
H           21.03890357297608        6.69982138527372       14.58703693964478
H           19.72363289899589        5.59468963735567       15.00435749650395
C           17.66811346077856        7.06469233988666       13.97574846101401
H           16.95524696077953        7.88987364086557       14.03837753227408
H           17.34277373139410        6.29123499539935       14.67863523700389
C           18.14337864175949        7.59947932833042       11.57763278971369
H           17.44372464940529        8.44040913888105       11.61553936254797
H           18.14887103959168        7.21132749027619       10.55452701011258
C           17.69244693914872        6.50273505432503       12.54949899431239
H           16.68425076323295        6.16482154410843       12.27978029378558
C           18.66530138759673        5.32035360437415       12.48525401549569
H           18.33869755868682        4.53172553157259       13.17058053778911
H           18.68132189151794        4.90316818918558       11.47380950662120
C           16.38129333282476       15.11927690348059       20.44587705196124
C           16.67293703496475       16.43077738564379       21.17632445657727
H           17.66535387842175       16.37369839525999       21.63348131543014
H           15.94260158772158       16.57872521393288       21.97686888987516
C           16.62583685806983       17.59652429631135       20.18296925817245
H           16.83955354040711       18.53248639711258       20.71420278199303
C           17.68107578090873       17.36999897495587       19.09573722097720
H           17.68588453442606       18.20804318605607       18.39228977828784
H           18.67181167598540       17.30234911603036       19.55469573379311
C           17.37843626688509       16.06222614222675       18.35853496585594
H           18.13170879226569       15.90205608251770       17.57812468185029
C           17.42939557226330       14.90035116945054       19.35629987468668
H           18.42573998436955       14.84066952764732       19.80582639120864
H           17.23878994892192       13.95206882706748       18.84530159399420
C           14.99156846138191       15.18993040871633       19.80916029320015
H           14.23511361512847       15.32040785622131       20.58791181773026
H           14.78032179610149       14.24888714090377       19.29160493076359
C           15.23258057633510       17.67106616906520       19.54801331380271
H           15.18789559405918       18.50788430347594       18.84417808019663
H           14.47857911384957       17.84125537190922       20.32285731085981
C           14.94075962012592       16.35646955790452       18.81466057275236
H           13.94165146497341       16.40209675529738       18.36401350840999
C           15.98883249138805       16.13521338941760       17.71882269392064
H           15.95329876202945       16.95436646291816       16.99412018962839
H           15.77729457281016       15.20370882449303       17.18405509779938
C           15.16803406444443       10.51191524675676       17.56088208238571
C           16.36469869419572       11.35277467373586       17.12016029811576
H           16.46375716483384       12.22544342961936       17.77257721677416
H           17.28297557305352       10.76386674073337       17.21053410225395
C           16.16792931346883       11.80102371921095       15.66798077041154
H           17.02292072222608       12.41333926459768       15.35908861448706
C           16.07621422843448       10.56207737430332       14.77307224702899
H           16.99718768100698        9.97796142775113       14.87124646965993
H           15.97109385524084       10.85785773295974       13.72489071564934
C           14.87389681428079        9.71557946216101       15.20651068498249
H           14.80174504744413        8.82495270318874       14.56950424587905
C           15.05987122789926        9.27812272221762       16.66360135170913
H           14.21685594767841        8.66007322364889       16.98576430295613
H           15.97107556543366        8.68038819373464       16.75837169452021
C           13.88708269821867       11.34144909839349       17.44160599692995
H           13.03316535651462       10.74846068271229       17.78082951701759
H           13.96188393980522       12.22174061408218       18.08740253703661
C           14.88502098924250       12.62897922938368       15.54619879873814
H           14.95673871650971       13.52007887919289       16.17804657274172
H           14.75207130128264       12.96028456038846       14.51175858475245
C           13.69025394032822       11.77591930273528       15.98379978133442
H           12.76840283818008       12.36517774286746       15.90456406746466
C           13.58660069383339       10.53879084602110       15.08391028049159
H           13.43759628205760       10.84626778486752       14.04423530665633
H           12.72675323224136        9.93094471476188       15.38247930576227
C           19.03577254336310       17.34870750817623       25.45019480548123
C           19.95149578142399       18.56174588064042       25.27620806634957
H           20.27341644850667       18.63020806723138       24.23225653622366
H           20.84551889310965       18.44200130744850       25.89490578650501
C           19.19289467422762       19.83355020231465       25.67751706661620
H           19.85284490931372       20.70070840682603       25.55173910298578
C           17.95705002626181       19.99562091613246       24.78449479420302
H           17.41909909114048       20.90945744684689       25.05451214892541
H           18.26259776617505       20.08124490624940       23.73677400799973
C           17.04239567122607       18.77806792972590       24.96226868368791
H           16.15950726389582       18.88463064444483       24.32004612509421
C           17.80444427042410       17.51018825446381       24.56186947544673
H           17.15809620311388       16.63272821226500       24.65914385802904
H           18.11766922553936       17.57917231639653       23.51626599251606
C           18.60178740937671       17.23937126087019       26.91255488188573
H           17.95970389242010       16.36247802496938       27.03950354809783
H           19.47984576997877       17.10602154526640       27.55094299564290
C           18.75904419226352       19.72788110690196       27.14428696018543
H           19.63916633983225       19.62488558650763       27.78671549608709
H           18.22891361618782       20.63762857443842       27.44229376272044
C           17.84285740162762       18.51039533040563       27.31487647941090
H           17.53453917274371       18.42776285358266       28.36430710306847
C           16.60322051758239       18.66825519691327       26.42678206262907
H           15.94199460048227       17.80528455221143       26.55306988535353
H           16.04733507468186       19.56468307330372       26.71792821396941
C           16.69954711667544       11.78195684044151       27.03546306675896
C           15.93623275108179       12.72935775569269       27.96418978872919
H           16.46302537741304       13.68643034301472       28.02590524775609
H           14.93884773543089       12.91978495581604       27.55818946199367
C           15.82914367317732       12.09353795452012       29.35805801372956
H           15.28165728987093       12.77432263158626       30.02157784408058
C           17.23304986016580       11.84689073502279       29.92395158288850
H           17.77234352715252       12.79529370396866       30.01364993626983
H           17.15993432689985       11.40469141768664       30.92227952468106
C           17.99475803321806       10.90267211545991       28.98682384164536
H           19.00583894878652       10.73057726009673       29.37733393365855
C           18.09564581457448       11.54819689944085       27.60213401776192
H           18.62879188163165       12.50075342106399       27.66724559777825
H           18.66173525182621       10.89730796759220       26.92938309068399
C           15.95564253865059       10.44875489443080       26.93574337192944
H           16.50613029770496        9.78054470749334       26.26720807721079
H           14.96297380300437       10.60963441054042       26.50644681435820
C           15.07768699875972       10.76064069889225       29.25920599399660
H           14.98575363054124       10.31070835117029       30.25257999110887
H           14.06848788416890       10.92891901388253       28.87059272970378
C           15.84402639868576        9.81638567427472       28.32655644423144
H           15.30645589608358        8.86289734375855       28.24784473318347
C           17.25261062899049        9.56606769759651       28.87392262564308
H           17.19701453640479        9.08407464858310       29.85476119605532
H           17.79498869398396        8.89741833206212       28.19570422770787
C           15.31572118261912        6.30830759579419       23.90544169075423
C           16.44888709399187        5.31066800321227       24.11988160107883
H           16.56496031207841        4.69372257952739       23.22465902832456
H           17.38915401137967        5.84771541620270       24.27948965412613
C           16.14055428407267        4.42460107366160       25.33048711921861
H           16.96708781118031        3.71825953728469       25.47894811651644
C           14.84236929887598        3.65223435577551       25.06826104399555
H           14.61323385378558        3.00590589738127       25.92105850963626
H           14.96081247601466        3.01625475551748       24.18520100364678
C           13.69875846531328        4.64951474913296       24.84623830953641
H           12.76832167827263        4.10185864011871       24.65195384453127
C           14.01813467788154        5.54162466065467       23.63818593391611
H           14.13235239771938        4.93005101285182       22.73793766599197
H           13.20203383168506        6.24813852238446       23.46322145173544
C           15.15375517693771        7.17587475025291       25.15473411239036
H           14.35902321384141        7.90982264833774       24.99596236751499
H           16.08433708987031        7.72216606470846       25.33544470696653
C           15.98189012526442        5.30024796346629       26.57844760132992
H           15.78199419184823        4.67385181881331       27.45302825646538
H           16.90824507792495        5.85395624799516       26.76269617201211
C           14.82992586323241        6.28642902746139       26.35970194262832
H           14.71159061512386        6.91550867360163       27.25106549196655
C           13.52889183857157        5.52012584930756       26.09690663901998
H           12.70471184349476        6.22533454911898       25.95155572761415
H           13.28611054495804        4.89071259560774       26.95860501662317
C           15.71538053667856        4.44392820165622       18.00184905360139
C           14.96552594286728        3.46025199628721       18.90137109321031
H           15.61650585665011        2.61766752104690       19.15206788780142
H           14.68710173392359        3.95768842738764       19.83548431884282
C           13.70884223605681        2.96370515884549       18.17422994360392
H           13.17417180956968        2.25816278432741       18.82193293289507
C           12.79901358408636        4.15510580404091       17.85246368770520
H           12.49844447700111        4.65546960142738       18.77829484086700
H           11.89282336258092        3.80664604861047       17.34776622058330
C           13.55446622536108        5.13838568418711       16.95116912451473
H           12.91179942922785        5.99760633474149       16.72298575593662
C           14.81075081299721        5.63043973445398       17.67687817422595
H           14.53608570547668        6.15185168091879       18.59869679073418
H           15.35280616912467        6.33888514243583       17.04420235459058
C           16.12304188119336        3.74306481703116       16.70461800260837
H           16.67323790457596        4.44336927526987       16.06830191694564
H           16.78744099222831        2.90405657606530       16.93036204757407
C           14.11386243180925        2.25941617235431       16.87392153740121
H           13.22249342084304        1.89135305858270       16.35674601342228
H           14.75228665163137        1.39933672511037       17.09877618115148
C           14.86736277123677        3.24784308344577       15.97609922504020
H           15.16479808395647        2.74646507331138       15.04684888697280
C           13.96279355157795        4.44157017342269       15.64804677839940
H           14.49559470069863        5.14603278426753       15.00099168553109
H           13.07224876492478        4.09912931917044       15.11233218877952
C           22.68372546180902       12.72108682851885       26.61286964993824
C           23.16718945124453       13.99419860661315       25.91684361044158
H           24.02802794235429       13.77285479250961       25.27842954855084
H           22.36968972242837       14.38253422903618       25.27529935243887
C           22.29798536822382       15.36730613118213       27.81389025558299
H           22.53811628416717       16.13238857490533       28.55847059911601
H           21.50783720955260       15.76043158604524       27.16470039392374
C           21.81195482828521       14.09158521397469       28.51065873873964
H           20.92196589809758       14.31630287885706       29.11164521441156
C           22.92011348650174       13.54157323620524       29.41669697042359
H           23.17693650761481       14.28011330978866       30.18224625939007
H           22.57088128743057       12.63692774826871       29.92466377665113
C           23.79255268530498       12.16740630697703       27.50986196759998
H           24.66917353340613       11.92193036726184       26.90338743424374
H           23.45021174734543       11.24781327228914       27.99414069290551
C           21.45336676706847       13.03737646592241       27.45733996150470
H           20.65283082859102       13.41170837365997       26.81225454822810
H           21.09358694018281       12.12514309599224       27.94352030967722
C           23.53639499117989       15.04289621721181       26.97169405135611
H           23.88614224436531       15.95199038612803       26.46721310806482
C           24.64933202996776       14.49388132969183       27.87161907202635
H           25.53729270415708       14.27082342189940       27.27181962585350
H           24.92707372001402       15.24254819084438       28.61990405347385
C           24.15565601996355       13.21972436774264       28.56708250252166
H           24.94972946878102       12.82227196131154       29.21127406514327
C           20.47557907557008        6.79635095221793       27.69916151499445
C           20.53575435161763        7.57435842175496       29.01498059317159
H           19.52436345291251        7.82993519479254       29.34108810666677
H           21.08615479874664        8.50820537812029       28.86392668332611
C           21.22731320266813        6.71889659737849       30.08418069343476
H           21.26487453772606        7.28187774931672       31.02480463338458
C           20.43305949054317        5.42410163271826       30.29311549542700
H           19.41888147427151        5.65974053577392       30.63047836993994
H           20.91180504275490        4.81390787536221       31.06503603531660
C           20.37614206204813        4.64600475485120       28.97327566690462
H           19.80451049148371        3.72095429922579       29.11696218909745
C           19.68556348781134        5.50274146140414       27.90459278292877
H           19.62866518965699        4.95383820507748       26.95969886692070
H           18.66539362258397        5.74261327454763       28.21716124421101
C           21.89460487353931        6.46136350754426       27.24696485401401
H           21.86098788878503        5.92260860067427       26.29515979928254
H           22.45420821075212        7.38754578721951       27.08507782489740
C           22.65192216626474        6.38289597302927       29.62955692055886
H           23.15646222080898        5.78378997843893       30.39363510764084
H           23.22620269449492        7.30408130948859       29.48912612923805
C           22.58731625676866        5.60326581925018       28.31171476270237
H           23.60432825925630        5.36427495724764       27.97725920471324
C           21.79796607212230        4.30493747267623       28.51312703910397
H           22.29324402181233        3.67980651820962       29.26227284468082
H           21.76158813220543        3.74242959238299       27.57481054534725
C           20.47900820579904        4.29030875381657       21.83185548753086
C           21.54949525746201        3.46184846370970       22.54512597666414
H           22.54350734242857        3.80667087840567       22.24561797162892
H           21.45919229355524        3.59423111095957       23.62755465885887
C           21.36835144880664        1.98270649759126       22.17486433203750
H           22.13488878771409        1.38839994701663       22.68741463533987
C           19.97656399071769        1.50952322645865       22.61172771336619
H           19.86896778691181        1.61761650459479       23.69575013227097
H           19.84877089911692        0.45130458639280       22.36420317469284
C           18.90956622131093        2.34666525426406       21.89611124010669
H           17.91121119723982        2.01938111023566       22.21213701224115
C           19.09516342497330        3.82167027786369       22.26861669769711
H           18.98368616411002        3.95508383853077       23.34892532586967
H           18.33221912616141        4.42927860964545       21.77310996134053
C           20.62099796768029        4.12333464326846       20.31829148525427
H           21.59972735731339        4.48389655358395       19.98776856607501
H           19.85832119329382        4.72384182357667       19.81268803383230
C           21.51669235774469        1.81236312068798       20.65834266970137
H           21.40669594634047        0.75718764058617       20.38998345672024
H           22.51237948451490        2.13888073198744       20.34213588759634
C           20.44458881637613        2.64674806407197       19.94811195817747
H           20.55066410972029        2.53434840011714       18.86214248968294
C           19.04978803334714        2.18060949337237       20.37894845007226
H           18.90094163750212        1.13257349753287       20.10168294986690
H           18.28834026243792        2.77929597265361       19.86623883982320
