412
 energy: -583.275349659652 gnorm: 0.000415308425 xtb: 6.5.1 (579679a)
C           32.47770179458204       29.73954100118429       14.79817608301173
S           31.52971864397016       28.77731998106061       16.00014330355681
C           32.09274509496971       29.44585144326953       13.35243850126551
H           32.24169763143365       28.38364220219442       13.13924063022012
H           31.03175911530703       29.66878001882836       13.20383315573700
C           32.94198818352010       30.29576348441151       12.40365462156607
H           32.65309931065870       30.07584240191042       11.36812723083134
C           32.70213260266397       31.77967948125265       12.69614436969005
H           33.28826978614060       32.39870640313403       12.01010660682580
H           31.64414092202225       32.01745929140882       12.54468411350534
C           33.09786733792011       32.07646164087135       14.14596164031274
H           32.92506359303908       33.13793823488912       14.36375141816719
C           32.24477929931505       31.22244126818815       15.09072934967769
H           31.18553367040398       31.45814448048577       14.95010252386241
H           32.50258082049303       31.43597615028802       16.13155266519604
C           33.95791300780338       29.40238200738649       15.00267950029932
H           34.23706897010331       29.59336445615286       16.04253601649722
H           34.12170974604904       28.33977016180372       14.79989691630182
C           34.42270285793222       29.95636568561545       12.60537441704330
H           35.03840308390578       30.54824102410182       11.92123322585708
H           34.59444569845100       28.89781790139997       12.38430063155051
C           34.81211649278110       30.25753675886174       14.05721138859004
H           35.87085865105362       30.01478166275182       14.21045745808887
C           34.57968954157108       31.74378260249843       14.35509478199168
H           34.86845716301163       31.96673234232830       15.38693027779359
H           35.19707699198253       32.35774921182023       13.69208385957190
Au          23.38484777997671       31.62172891030644       20.50134252494853
Au          21.59995102537329       30.01620223052960       18.82963397774634
Au          26.35157417113968       33.12463831900301       19.55449485056629
Au          25.86718510733434       30.05327024836436       19.57281678971277
Au          24.80100915232466       31.42688780266117       17.56422212319540
Au          24.09094355165996       28.79574062785160       17.77795757021922
Au          22.82578793749479       30.37979207131240       15.39652482388421
Au          26.66479422665841       32.85882049632578       14.72438358699204
Au          27.79684874723294       31.08385591585277       16.92413565520892
Au          28.61537189562002       28.15811508987321       19.78204109901580
Au          26.90201622117170       28.34767538249938       17.34286773168458
Au          26.63544998042242       29.76418061982119       14.76963372556323
Au          25.38252362652937       26.12998934596915       16.02357208522328
Au          24.19603898211407       27.01752298278607       13.47599389869910
Au          29.16874010274752       29.12945393990968       15.45385645688719
Au          28.62178371089975       26.14798888882309       16.61262086600397
Au          28.63645907329801       30.98797219447685       12.88547922286397
Au          27.68857923555366       27.29083528878928       13.18333232297099
Au          31.07138389363801       26.70101993153118       15.00864637518023
Au          25.86704155243140       24.96728876061274       11.91681415663599
Au          29.09670877321350       24.73806256474808       12.45283916730969
S           22.48310780279357       29.45590194955826       20.95888504728625
C           21.21058490768014       29.76659471593260       22.21426931851684
C           20.05664900668385       30.62125264155204       21.69383286505175
H           20.43552179166904       31.59404716124668       21.36748197080384
H           19.59573589214821       30.13417863428341       20.82941724903188
C           19.01442841594641       30.80920140318127       22.80385320257610
H           18.18894221065130       31.42095143715940       22.41980252904962
C           18.47884513493532       29.44031269852944       23.23942451571062
H           17.72520420817792       29.56735398244060       24.02254285137316
H           18.00219073822378       28.93968806275435       22.39082294164097
C           19.63942555911770       28.58707320337594       23.76416188601865
H           19.26230467590211       27.60453511875507       24.07327754602924
C           20.67790114249598       28.39905139712899       22.65034795960494
H           20.22437329312104       27.89081911984408       21.79445544609083
H           21.50625333281345       27.78091409990185       23.00826566273666
C           21.85544931234855       30.47008283497464       23.40932072166998
H           22.69895771788829       29.88162796465359       23.77680903824630
H           22.24292516653983       31.44314927653301       23.09317169060756
C           19.66267157643717       31.51500201014111       24.00030546677827
H           18.92139425721332       31.66651714074108       24.79076222386593
H           20.03715585926934       32.49767967829816       23.69592292490398
C           20.81945788060909       30.65646682931481       24.52319073262298
H           21.29495459316039       31.15859531918421       25.37491466129998
C           20.29282296235446       29.28545052905735       24.96244363955946
H           21.11746526545429       28.67574418166782       25.34508849571974
H           19.56159512092563       29.40707567848277       25.76736643479950
S           24.21509771132687       33.83706088785765       20.26130315327944
C           24.44540478617516       34.38638751884268       21.97085426094726
C           25.18517102871118       33.35235424121053       22.81580511010596
H           24.62289504506484       32.41452580781211       22.81949517526376
H           26.16687827147215       33.14847337561789       22.37780473467162
C           25.34194370878129       33.87084170137098       24.24881520518231
H           25.87412055378072       33.11998883068262       24.84599898719343
C           23.95497267257785       34.11923220971092       24.85259724384445
H           23.38568888817498       33.18410095456769       24.87383319350753
H           24.05392126618454       34.47632758016449       25.88218192735988
C           23.21550334241395       35.16169095440090       24.00576064712062
H           22.22085113718354       35.34179616864436       24.43188949702420
C           23.06138308188777       34.64032839639787       22.57139868299998
H           22.52073020059814       35.36779681069818       21.95916540914741
H           22.48578635812364       33.70957680596135       22.57075292908896
C           25.24314035830744       35.69147009895407       21.95011841455271
H           26.22778053255109       35.51113613521895       21.50802848428539
H           24.72768281564938       36.43061478909552       21.33007600480697
C           26.14326154451334       35.17746945452146       24.23124923905169
H           27.13762235094626       34.99782960349915       23.81071159923058
H           26.27096225830240       35.55093036788104       25.25180591399198
C           25.39717212708609       36.21523480247989       23.38438109759957
H           25.96786765893884       37.15176712603065       23.36535956447227
C           24.01149751177567       36.47204880076256       23.98843515888213
H           24.11532670213788       36.85843684072657       25.00696551078664
H           23.47962057229440       37.22286133324852       23.39578829640296
S           20.84526592240308       30.72580338108451       16.71176805134225
C           19.71220765086129       29.43736128795057       16.12889601403787
C           20.39112198914501       28.07950835911054       15.96488150499007
H           21.22488566419105       28.15863098972802       15.26174665893839
H           20.80438388128656       27.74899752731626       16.92136119768745
C           19.37910653405535       27.05198918259686       15.44971928314138
H           19.88151761767044       26.08357235843737       15.33434286147950
C           18.23297947468713       26.91967789170937       16.45794735717350
H           17.50916596968588       26.17759791454588       16.10744749083306
H           18.62503409531857       26.57964693811765       17.42197007938177
C           17.54858349478167       28.28173999871127       16.62185376347090
H           16.72930387951577       28.19634109269974       17.34632063492282
C           18.56603485652315       29.30994990338656       17.13412210718390
H           18.96437372376416       28.99109739064227       18.10250969265753
H           18.08475897106259       30.28206251168598       17.27380749307531
C           19.15893143610936       29.89802848586840       14.77829308004536
H           18.68673792943344       30.87838471501422       14.88845098362818
H           19.98022802855155       30.00008437969181       14.06295391225237
C           18.83136624111400       27.51325775876587       14.09463449621024
H           19.65096382353060       27.60341593406545       13.37408947943934
H           18.12068019637939       26.77689620522491       13.70676053823364
C           18.14147194609190       28.87114578898718       14.26487320907412
H           17.74806067128798       29.20707779022442       13.29751344937812
C           16.99106004840841       28.74342431635677       15.27017935010586
H           16.48723520741726       29.70827932787028       15.38457995212293
H           16.25548081476663       28.02043280430727       14.90444277001653
S           28.46721569821797       32.40956623171731       18.87032394859605
C           29.36811296298071       33.85474800511282       18.26878009298065
C           29.85896821168684       34.63975565977754       19.48796129847814
H           28.99972563802333       34.99254235899857       20.06658171791094
H           30.45201305437349       33.98508720558709       20.13256299221524
C           30.70486201832321       35.83091535933743       19.01750603467934
H           31.05381971628591       36.39176056649305       19.89337974638665
C           31.91169309600341       35.31815930706404       18.22301929841259
H           32.52915298514142       36.16107174691845       17.89761138522788
H           32.52838175751126       34.67298132012495       18.85644990023079
C           31.41624109429192       34.53309154389376       17.00379019448858
H           32.27641695524540       34.16082622698946       16.43361473642882
C           30.56474290634163       33.34549385205055       17.46562944852115
H           31.15939195694624       32.66256129007410       18.07833829865983
H           30.20074919225361       32.78964478070200       16.59640502436375
C           28.51691718649920       34.76951878565785       17.39368539666497
H           28.13497068659546       34.20937375375143       16.53563581852292
H           27.65556075490355       35.13133791950093       17.96357925359898
C           29.85453229151696       36.74678808514959       18.12869229631093
H           30.44966164044367       37.60418270080312       17.79967168437151
H           28.99901596821276       37.12764273130178       18.69561333955804
C           29.36255429434246       35.95363417721180       16.91218606507931
H           28.74534238632333       36.60017006287799       16.27554605646245
C           30.56370224320761       35.43888102676988       16.11065557233636
H           30.21527437014282       34.86769972093123       15.24340587937683
H           31.15938594528054       36.28135776426265       15.74623178734610
S           24.41823973895243       32.69084494380748       15.46202464279331
C           23.79118683594039       34.32402712556965       15.91875848192995
C           23.35628575725825       35.04269530765779       14.63960270296065
H           24.21666909843412       35.16125067978627       13.97358533801337
H           22.60592296477027       34.44332937261699       14.11584476121934
C           22.77781268377770       36.41618462207028       15.00702790562094
H           22.46531107896136       36.93081686244847       14.09001085272143
C           21.56692826590973       36.23063859614676       15.92913318687668
H           21.13843698029294       37.20548956832278       16.18112401662250
H           20.79604809156369       35.64528320459483       15.41820178829684
C           22.00888430004288       35.50876453925824       17.20748471960574
H           21.14454531732239       35.36930563928184       17.86819937272269
C           22.58902986261038       34.13690237428002       16.84457453419030
H           21.82977861967603       33.51811774609610       16.35684360560149
H           22.90804946875093       33.61744372968908       17.75366425951061
C           24.85908389010544       35.15072193031649       16.62871534394234
H           25.19110937856102       34.62704579817515       17.52980166300488
H           25.72823435079159       35.27353286124621       15.97512268350670
C           23.84890240266995       37.24847599221040       15.72221914195106
H           23.44824552621741       38.23558091555827       15.97209328167104
H           24.71145196526324       37.39141799300936       15.06327653552691
C           24.28382546757078       36.52164659879551       17.00048381445007
H           25.05669248992626       37.10790979415344       17.51281570051548
C           23.07827666540101       36.33648791835667       17.92842413563368
H           23.38968692885146       35.81933983875880       18.84300674273373
H           22.67086020108880       37.31178726653842       18.21160199890723
S           27.66924727451292       29.77542603505136       21.19373535436188
C           26.99386664560512       28.87129989894883       22.60462228783332
C           26.01455545613408       29.80138515785278       23.32309173653635
H           26.52234050832109       30.73106983702145       23.59520785748440
H           25.19134805904022       30.05192778990969       22.64747885076239
C           25.46962385670461       29.10768171360919       24.57677272641465
H           24.76818708938082       29.78126218416048       25.08501390886902
C           24.74401661709852       27.81989361631845       24.17082997053601
H           24.33231147573709       27.32507777646962       25.05567422377180
H           23.91267346385812       28.05499411701716       23.49836005366597
C           25.73075013678192       26.89111872181029       23.45724875370873
H           25.21738729616206       25.96729730366684       23.16584079664692
C           26.26503318410186       27.59144123314820       22.20214528685174
H           25.43928968499610       27.83563450732353       21.52659734630643
H           26.94977343637856       26.92815863027331       21.66518833086255
C           28.15538012084420       28.52885527689387       23.54087449895443
H           28.85779753990747       27.86775257833784       23.02418892189186
H           28.69109286128267       29.44350764331847       23.80973309250381
C           26.63197136644825       28.77262993943996       25.51832475858578
H           26.25168780234749       28.28776830025937       26.42271238789680
H           27.14395958986656       29.69223230728584       25.81857173367984
C           27.61295095303320       27.83907787239410       24.79904285024377
H           28.44874447712643       27.60000371004909       25.46799389904493
C           26.89214085067198       26.54865261298538       24.39589060076461
H           27.59144455145613       25.87416542589993       23.89139581690209
H           26.51325996491922       26.03595123519072       25.28530342949702
S           23.28078301585163       26.62021927189364       16.99403214655588
C           23.14157302763824       25.59224584276108       18.47074897018932
C           24.37592014523183       25.68439069588517       19.36441308191613
H           25.26218539803836       25.36895059938228       18.80583130302602
H           24.53083343614592       26.72294288252587       19.67154491268108
C           24.18203854902189       24.79514101368233       20.59629854024101
H           25.07438082824139       24.86127532147576       21.23066909752296
C           22.95493395023985       25.27578045264168       21.37884692510969
H           22.82147690589457       24.66804418011851       22.27888853470269
H           23.09720429071811       26.31600235203243       21.69010372912632
C           21.71531237382037       25.17349992534260       20.48354120079055
H           20.83300917833998       25.51752099281324       21.03788773034330
C           21.91130681287333       26.06158202096910       19.24985292839147
H           22.05032771278418       27.10057300729893       19.56075381184181
H           21.02673810836761       26.01812629779228       18.60745192709900
C           22.94082075597471       24.14218539018788       18.02415363198548
H           22.07074361258370       24.07790523491383       17.36450110525601
H           23.81618122260921       23.81007431881308       17.45814270650824
C           23.98187844664340       23.34161394711688       20.15386723501761
H           23.85862095818746       22.69870775568273       21.03070644675246
H           24.86311557407302       22.99632821359755       19.60392556421994
C           22.74174973442515       23.25209609910349       19.25784437518229
H           22.59720300478235       22.21425720391188       18.93355074951666
C           21.50928589740017       23.72098601374741       20.04005436390931
H           20.61721094967502       23.64760304894659       19.41012417139379
H           21.35797702193790       23.08122530832078       20.91496990646171
S           29.88625544005622       26.60090929584788       18.56505450600410
C           29.65504800996359       25.07974629722336       19.51406981933543
C           30.40378514163244       23.96210314917871       18.78444993331749
H           29.97476909107213       23.82706553449902       17.78716803936618
H           31.45394503688068       24.24129818059062       18.66136351231571
C           30.28787481577571       22.66025115418759       19.58648489169127
H           30.82720917496696       21.86386644076678       19.05935903839583
C           30.90019776134043       22.86011533149198       20.97771192054920
H           30.83252756419618       21.93096585432917       21.55183047617806
H           31.95854363025413       23.12274894683353       20.88487689373257
C           30.14674593122896       23.97905333084303       21.70623549800152
H           30.58466517096585       24.12990311540860       22.70056929568222
C           30.26145863280059       25.28131926455940       20.90397623564239
H           31.30922521231400       25.57980503694099       20.81085268804835
H           29.72878135504480       26.08568798467403       21.42094838701212
C           28.18281833375228       24.69652043744612       19.65454675161953
H           27.63774180834644       25.50136725439269       20.15660733749593
H           27.73770840862711       24.56551050847138       18.66393831268897
C           28.81001304155378       22.27594265291897       19.72242129580435
H           28.71688999041566       21.33888215107986       20.27970705892162
H           28.37132178187430       22.12438467079921       18.73127594110853
C           28.06398909927842       23.39602443238338       20.45594305552099
H           27.00453421693280       23.12864326884685       20.55194731077437
C           28.66943194749690       23.59653280186781       21.84886694835807
H           28.12892487006780       24.38846844055749       22.37739864394426
H           28.57498571093240       22.67683196280332       22.43409382017075
S           24.34964586664401       29.37801760040716       13.78190088505597
C           23.89454756828503       30.08602117100025       12.17352324123913
C           22.37994206577856       29.98919931368091       11.99708723284538
H           22.06568387663252       28.94221930528003       12.04728666113143
H           21.87941188472682       30.52708009440161       12.80736929968470
C           21.98389755904453       30.59945123219081       10.64690605324405
H           20.89535920457904       30.53100846775753       10.53000123700167
C           22.41327129668666       32.07094609793876       10.60675640336320
H           22.11913501425756       32.51896881338394        9.65283696352735
H           21.91606161304208       32.62621851754155       11.40836934494877
C           23.93379727878285       32.15904623944829       10.77942642467491
H           24.24562435763202       33.21079703172331       10.75844566934155
C           24.32502239197341       31.54853513806213       12.12938222370545
H           23.84957947196299       32.10168889591196       12.94345809817237
H           25.40769606536513       31.61277290422358       12.26990792356256
C           24.57966050872811       29.31785629470022       11.04732271657108
H           25.66435297651208       29.35883687479348       11.17428954104509
H           24.28016305218613       28.26704411438518       11.07994580731605
C           22.67240173583680       29.83082278722649        9.51354733045833
H           22.38253347421967       30.25277288159158        8.54650829414227
H           22.35999382837955       28.78163160742383        9.53105898651882
C           24.19084371157521       29.92518459365659        9.69560075797011
H           24.69416667800836       29.36630620900261        8.89686754968390
C           24.63153113799961       31.39235738730503        9.65096810501542
H           25.71776342232244       31.45779551192514        9.77206881552866
H           24.37317406252108       31.83249858822953        8.68309372998234
S           28.85790459338385       33.14902056968142       13.84803387884540
C           28.56477325225987       34.25974489535937       12.44393347222151
C           27.43008659975517       33.78056911464184       11.54098335804528
H           27.65451589013587       32.78036409617038       11.15905013871603
H           26.50525090179107       33.71414015300420       12.12072780232238
C           27.24388349255599       34.75448827793542       10.37347900598141
H           26.42937683750201       34.39371218838834        9.73304057488258
C           26.89050768735291       36.14070491988508       10.92309055459845
H           26.74216071457122       36.84386281886894       10.09801939224226
H           25.95757960545088       36.08746079956278       11.49354231446735
C           28.02891649155170       36.62609822660637       11.82727895640371
H           27.78201694678849       37.61646247786918       12.22901648930130
C           28.21394570497315       35.64493841410424       12.99171503565031
H           27.29427868071527       35.58257185325120       13.58181404935212
H           29.01141396071790       35.99759927796133       13.65067297037948
C           29.85984942931442       34.33847723233702       11.63342630414120
H           30.68027698210899       34.66469951037443       12.27893834660806
H           30.10888273584423       33.34554321707058       11.24729109206377
C           28.54189220020186       34.82960095412721        9.56193821771307
H           28.41546547464185       35.51399358695390        8.71764219013894
H           28.78701033555846       33.84071834250830        9.16117784864741
C           29.67537582149359       35.32126109790561       10.46967736678506
H           30.60805425062865       35.37614842129211        9.89503471778235
C           29.33003716139606       36.70974712260086       11.02046935796601
H           30.14211215919137       37.06916108847945       11.66014160360306
H           29.21184135101479       37.41876410637053       10.19540981845201
S           27.93618417398920       29.10022925715503       11.67663514807867
C           28.97401158050459       28.76169855614952       10.23051188053241
C           30.13583133213350       27.82610219157708       10.54457180450752
H           30.78355082310038       28.27231576909096       11.30220518724107
H           29.75046110193115       26.88614277130734       10.94698835915521
C           30.93032947614110       27.55225581283331        9.26208433068074
H           31.76405181223145       26.87754920760280        9.49273669680051
C           30.01158490308960       26.89701233849951        8.22570569717602
H           30.57433274124529       26.67004250125720        7.31519747896275
H           29.61572113076466       25.95748591704394        8.62479519149099
C           28.85164902425242       27.84619472744895        7.90669179552618
H           28.19033978784464       27.38139981069796        7.16515169169511
C           28.05527615398603       28.11876678367257        9.18834530489972
H           27.65271172319118       27.18064040736880        9.58111032732666
H           27.21474161730636       28.78603948363776        8.97669409230526
C           29.51542951370381       30.08324021346269        9.68435496171365
H           28.68786543284066       30.76885397314074        9.47923413272129
H           30.16240455864706       30.55367504488282       10.43103245818840
C           31.47888142488302       28.87110768349158        8.70738711134016
H           32.05598146852730       28.68228288933123        7.79706182456824
H           32.14894569181613       29.33347351101457        9.43923534082082
C           30.31074182180710       29.81425661468492        8.39948543513901
H           30.69762287682496       30.76532079911417        8.01298275213361
C           29.39427616324667       29.16880595230610        7.35358814217798
H           28.56443993072318       29.84261301917544        7.11797441379922
H           29.95384534057613       28.98733933069633        6.43086915832022
S           23.88914067794840       24.70606284010699       13.18662081382301
C           22.54510536500952       24.56227927237034       11.98189775214092
C           22.65803484988295       25.56127696130925       10.83240394282233
H           22.65391107940077       26.58092142476086       11.22890181509528
H           23.60466771506289       25.41524527571947       10.30386233351518
C           21.48131982810940       25.37575292347142        9.86829446411247
H           21.57305863855466       26.09826232526132        9.04763976995907
C           21.50509188787498       23.95031800651489        9.30480416743577
H           20.67517809779748       23.81145959114673        8.60522560722539
H           22.43871130519950       23.78202346430092        8.75854611288359
C           21.38874387849136       22.94969096461229       10.46054404700481
H           21.40792942288581       21.92727592725152       10.06355065238469
C           22.57028307841300       23.13860890641365       11.42142576424003
H           23.51446659863385       22.96939572996722       10.89438544805605
H           22.51012529379951       22.41798992647922       12.24185684817503
C           21.23230226204929       24.79991939227492       12.73095610013553
H           21.15420285572126       24.10399951023722       13.57101051046032
H           21.22916973199296       25.81591779184584       13.13637461745904
C           20.16650158477936       25.61646569652998       10.61896527552177
H           19.31936237083001       25.50179133005502        9.93585898517884
H           20.14541549500397       26.63782376000925       11.01329082937903
C           20.05236973002931       24.61042805745220       11.76999259662662
H           19.11409595060389       24.77930412784253       12.31307493049038
C           20.07265191488350       23.18241490172433       11.21249839593635
H           19.97882302312659       22.46213924763443       12.03116890778621
H           19.22589596534535       23.03472367646073       10.53514036269901
S           30.75908812738172       24.52902238444259       14.13106177944880
C           32.26552709162046       24.24757324251303       13.16970217944469
C           33.46412071515700       24.27949652436567       14.11893401076857
H           33.53025779497163       25.26495944341820       14.58989399856443
H           33.32783357001222       23.53839315778128       14.91155423495199
C           34.74851590310399       23.98886426172355       13.33199845161797
H           35.60429515558254       24.01240011023439       14.01788780033552
C           34.64894345322793       22.60230162127720       12.68492246154180
H           35.56712092251479       22.38221929195108       12.13153571335552
H           34.53079612013423       21.83785014129686       13.45921763823637
C           33.44624763280881       22.57220923395434       11.73430484025043
H           33.36748439122270       21.57964096995768       11.27369355335107
C           32.16351532014063       22.86479495389827       12.52325953464886
H           32.01128122583430       22.10643092269031       13.29642429083847
H           31.29852681656939       22.83738382073314       11.85328484910050
C           32.45285306839024       25.30161338643795       12.08020165681006
H           31.59111510331352       25.28708339876769       11.40717400891826
H           32.50356622272538       26.29625690106139       12.53289829935591
C           34.93479175450371       25.05333199876849       12.24406427142101
H           35.85885307820135       24.86339833195634       11.68943319121433
H           35.01372324257168       26.04515259526646       12.70147627485346
C           33.73441370072209       25.01519445679006       11.29170420781322
H           33.85675759021016       25.77936260646937       10.51359583192543
C           33.62819700945902       23.63132657455206       10.64059631420152
H           32.77549417267039       23.60858469889597        9.95411811829308
H           34.53259629564688       23.41949953867783       10.06197586429475
S           27.75535333662429       24.87800957895370       10.49470774114154
C           27.72179077815288       23.19937638312786        9.81445068735745
C           27.47079306096879       22.13607845459419       10.88171899176950
H           28.25311220563889       22.18750232743278       11.64494118110648
H           26.51358023210062       22.32678782629388       11.37596104811653
C           27.45793030985494       20.74753690730157       10.23274932218746
H           27.27595940695906       19.99091733018180       11.00576798795029
C           26.34217972351326       20.68667877761767        9.18285379576349
H           26.31562317042567       19.69380956753252        8.72344367162442
H           25.37266556609861       20.86376456480464        9.65961085376870
C           26.59864885396723       21.75249771797578        8.11112127024547
H           25.80149972863568       21.71535527899711        7.35833538015384
C           26.61002055415191       23.14052162020518        8.76475986618564
H           25.64541767014996       23.33836170478522        9.24277842230532
H           26.77427994791132       23.91435709865715        8.00926404148907
C           29.07349183602984       22.93838404557506        9.14608576486688
H           29.26691672879770       23.70637744844296        8.39156223866229
H           29.86992261636109       22.99650074949293        9.89443274168343
C           28.81303567433095       20.48412105192720        9.56592957787391
H           28.81874186585030       19.48851714473804        9.11177517199888
H           29.60955788481055       20.51734956609776       10.31610328973588
C           29.06249158099881       21.55038517670052        8.49330167076821
H           30.03292792518547       21.36984583803248        8.01462621758678
C           27.95154629986537       21.49182751592891        7.43805150303872
H           28.13350060349892       22.24377762792737        6.66375233293268
H           27.94521076063765       20.50851308161397        6.95772543112849
S           27.30102980105497       25.55885048641481       14.76838327136461
