292
 energy: -402.334398648568 gnorm: 0.000666940292 xtb: 6.5.1 (579679a)
Au          -0.76245139171067        8.90423883008601        6.94411122115722
Au          -4.55167918721988       11.49444304455338        4.17293857945655
Au          -3.18914552587334       10.45116285457410        6.82907481476142
Au          -0.57244197496606        6.03644301226677        7.10624776992908
Au           0.79403291823079        5.88556821129999        4.39604083368941
Au          -1.87171481779959        7.01446551805491        4.55065776660994
Au          -3.33418369564462        7.37997208004468        6.97558754353700
Au          -3.71302144046727        4.46597520786969        7.29959341492184
Au          -2.91138387185182        8.87633074037542        9.39489026914433
Au          -0.22126354119609        4.39484514739763        9.79932690067194
Au           1.60206987243846        4.24296325852595        7.66138393160632
Au          -2.44751809415069        6.15058477966441        9.50245219899687
Au          -3.72762327092728       13.20954952606212        6.25302216508673
C           -1.65227904354699        4.32279785601605        6.65067747341226
C           -1.60757496404722        3.17086267374533        6.22968779615823
C           -1.54711887034723        1.78843190854311        5.76348238081086
C           -0.45553212571200        1.66218761323898        4.69005663665510
H           -0.67414298317585        2.32715735724180        3.85514681173626
H           -0.41001502798373        0.63749772626190        4.32184327471195
H            0.51467730758535        1.93277566509238        5.10475461181460
C           -2.91317633540539        1.40872846739918        5.16825275396838
H           -3.68630892929638        1.46770509585752        5.93442323543571
H           -2.88373924495260        0.39257361045578        4.77516802246773
H           -3.17635992475691        2.09371406901541        4.36269461595156
C           -1.21638516754985        0.88112056235715        6.95983664387625
H           -0.25360387439533        1.16105718043212        7.38769700974057
H           -1.17094070465057       -0.15987425981419        6.64024195664651
H           -1.98094209542732        0.98095085546892        7.73029152822010
C            0.79812246444326        7.56196672251602        7.43967010445354
C            1.98930879685361        7.79815399274440        7.54388270774751
C            3.42512300133366        8.05336186049398        7.64281164704843
C            4.02324744262697        7.97764248236340        6.22758330179675
H            3.84803212235651        6.99050888586495        5.79914343881016
H            5.09741672406577        8.15979038172952        6.26281952086517
H            3.55970142465053        8.72394645289108        5.58236497044678
C            4.06749716921921        6.98733256833640        8.54371490635525
H            3.62763962517483        7.01982736632334        9.54006532437124
H            5.14090333031063        7.15901907260367        8.62472645899043
H            3.90131367696702        5.99456342326975        8.12556837797997
C            3.65237611649412        9.45198230405076        8.23875553935595
H            3.18099487135911       10.20964359087180        7.61250866639635
H            4.71977327571458        9.66338665376178        8.30401470436206
H            3.22088764007175        9.51071181921067        9.23795285159488
C           -2.04999733713310        4.26955217147844       10.67884039175484
C           -2.93730462534194        3.89714990630150       11.42302026054253
C           -4.01964037993375        3.47408619791116       12.31181039258298
C           -5.35938598251403        3.88107134482947       11.67514951723728
H           -6.19170030698441        3.52997629726206       12.28548703066852
H           -5.44897920862253        3.45677879813471       10.67545409988428
H           -5.41863130818494        4.96639435399813       11.59577101297173
C           -3.85509491260851        4.17917297202557       13.66826111179770
H           -2.90444783710131        3.90420344438716       14.12481016472494
H           -4.66486365417325        3.89356290568948       14.34007800434777
H           -3.87613937295152        5.26091831856223       13.53289843707646
C           -3.96608208253103        1.94994729629346       12.49852488256355
H           -3.01587056715903        1.65757219941889       12.94501837731425
H           -4.06543234182503        1.45040320076256       11.53494134419945
H           -4.77742575560303        1.62244636758549       13.14893570937215
C            1.86325546619887        4.19580096887111        9.69198771571465
C            2.73243152821064        4.13875766023891       10.54462909414677
C            3.77148496044414        4.04099766799400       11.56991746840932
C            5.14062731447177        3.90028755590157       10.88224251747920
H            5.15689671284240        3.01064081177483       10.25287667824852
H            5.92832038754572        3.81606773951768       11.63133747799144
H            5.34132299250022        4.77166741070938       10.25896987867782
C            3.49498285171968        2.80410916191811       12.44165897355683
H            2.52232291131271        2.89457048391650       12.92514147217796
H            4.26223467783488        2.70804057889822       13.21028642653797
H            3.49677670198070        1.90316761956615       11.82833784007026
C            3.75129007321317        5.30916551369412       12.43934479112098
H            3.94198233161374        6.19020548597181       11.82627431895302
H            4.51894428436449        5.24785050560336       13.21122119848082
H            2.77927423054731        5.42147856614080       12.91972469187734
C            1.79563628178796        4.29258908975090        5.64887758013549
C            2.21507764847804        4.11261320679574        4.50123290885422
C            2.94516525029393        3.64564573873616        3.31218280612736
C            3.62475469530358        2.31493227565316        3.67326241815677
H            4.30536517681531        2.45436833045507        4.51288469264750
H            4.19030663486943        1.94157874541563        2.81924570986026
H            2.87613852683760        1.57287509145667        3.95064953719055
C            4.00534579052864        4.69469129240318        2.94132097511364
H            3.52392129387834        5.63795087745185        2.68299186590185
H            4.59062404170676        4.35316480907994        2.08736421272032
H            4.67674966403498        4.86633501468810        3.78263887559430
C            1.98371504745082        3.44002947646256        2.13379574611110
H            1.21936076662070        2.70708846271900        2.39031756838545
H            2.52962794537030        3.08479624839524        1.25948439907549
H            1.49253369531359        4.37970855074192        1.88121773087298
C            0.05968387674795        7.51947581520850        3.45925446941694
C           -0.01313512553828        8.54275243518253        2.80533176720164
C           -0.12866508819971        9.76546483039274        2.01152571252895
C           -0.99609750699688       10.77168077509616        2.78375298838024
H           -1.99595029640042       10.36440240209939        2.93696206881413
H           -1.08192943749551       11.70328138869207        2.22509214634970
H           -0.55917440166252       10.98334289358024        3.75871210546832
C           -0.79384158101448        9.42775611333537        0.66725769988544
H           -0.19149397708682        8.70432246870156        0.11806019119709
H           -0.89824500357556       10.33000464769028        0.06430525298342
H           -1.78293763907681        9.00151899262107        0.83600230934124
C            1.27233531684647       10.35422520925464        1.78009093965810
H            1.74838934353554       10.57557568590476        2.73546092396382
H            1.19988873182823       11.27533251324198        1.20152899412773
H            1.89546280831927        9.64423019779456        1.23658180479825
C           -1.20163267882262       10.90859768365363        6.42650175400226
C           -0.42641372556007       11.83957923416207        6.29256587559482
C            0.48155315148469       12.97670885061995        6.15530453613677
C            1.81546344012369       12.49183631206357        5.56504673657614
H            1.65462181833331       12.05523622901698        4.57940064857450
H            2.26051343259681       11.73489397801554        6.21111498789672
H            2.50994984752750       13.32671904973795        5.47060538799084
C            0.70898466883972       13.57916195593507        7.55233109870915
H            1.38309042896623       14.43342820044983        7.48851061454552
H            1.14556756899314       12.83400294842606        8.21737312208414
H           -0.23920901193401       13.91066752858602        7.97622762405476
C           -0.15453195801555       14.02327657364106        5.22766032311024
H            0.50742708450097       14.88236612910466        5.11816888886998
H           -1.10411815894920       14.36212155723046        5.64175073051397
H           -0.34119466329432       13.59264939677113        4.24430554194689
C           -5.59935271821523        9.93588051669675        3.39224667368842
C           -6.41300916934531        9.33021726051060        2.72012220674327
C           -7.37720312287088        8.57862210546321        1.91675566322810
C           -8.64543364995846        9.42277397362949        1.71499050140419
H           -9.08750921294318        9.67171603632243        2.67980514667542
H           -9.37616332121844        8.86699369431818        1.12699100355224
H           -8.40371841163271       10.34887430725078        1.19381999697781
C           -6.74009720374252        8.24422673132046        0.55782304089007
H           -6.47542749598211        9.15936558954744        0.02846221791831
H           -7.43958382922360        7.67306084901410       -0.05305763573805
H           -5.83645061490007        7.65179389911640        0.70350686654965
C           -7.72574642410804        7.27891269563956        2.65952879491405
H           -6.83363598362639        6.66233406990353        2.76999597414285
H           -8.47316321895882        6.71318041943229        2.10375386449464
H           -8.11501609755500        7.50056264464191        3.65228003116141
C           -3.70746060469050       13.41193509757035        4.21427495233163
C           -3.36308556846757       14.18311489394408        3.33522684260036
C           -2.97783654450488       15.11947186225197        2.27920505743329
C           -4.21908871949967       15.45481812380434        1.43469937713121
H           -3.95598678888397       16.15851802863445        0.64458648927829
H           -4.99112741175869       15.90163914397463        2.06092460301732
H           -4.62028098531155       14.54926316529865        0.97972439154948
C           -1.90024766609164       14.47424634260934        1.39210625795278
H           -1.01921103892063       14.22982119815555        1.98577538938953
H           -1.60664380919038       15.16106448874034        0.59780116945011
H           -2.28231420422770       13.55871771335986        0.94045251563100
C           -2.42412103410497       16.40100187751163        2.92602358013891
H           -1.54650589552081       16.17026309163637        3.52983451349863
H           -3.17858184404994       16.85595184877680        3.56762515596039
H           -2.14030670466854       17.11675934860657        2.15412696747836
Au          -6.08536129494486        8.47733781336378        6.75020560091320
Au          -2.57901200501341       11.74873379971363        9.50647121389070
Au          -6.36187271332598        5.61787362437183        7.03040255227863
Au          -7.81950305838221        5.91811414555697        9.62745669623072
Au          -5.06394195054399        7.12581994575686        9.26033973053204
Au          -4.07070956825673        8.69287017706876        4.47730535813902
Au          -6.69598909388897        4.14420275137871        4.35390679368521
Au          -8.67894094050947        4.06540825345569        6.39976860404494
Au          -4.42415663166763        5.92380800076625        4.71853029119603
C           -5.62261362135291        3.75104058761045        7.77501390400131
C           -5.96327431662102        2.61423041837130        8.05139882323899
C           -6.41337030753227        1.24863999341523        8.32090841620654
C           -7.43734277999198        1.24667455341152        9.46534803850487
H           -6.98245448114731        1.62336908771801       10.38093801488596
H           -7.79666740255844        0.23316534832867        9.64398418559924
H           -8.28518358872896        1.88121819679071        9.20997222676809
C           -5.19537116008020        0.39126556741568        8.70230289339304
H           -4.47438896021225        0.37512486039414        7.88507218813737
H           -5.50828144890450       -0.63094344074340        8.91502597045086
H           -4.70774450595319        0.80151972916348        9.58621074583101
C           -7.05839989168502        0.69695267534033        7.03850348886217
H           -7.92980968735527        1.29524103879809        6.77116784607599
H           -7.37585224151551       -0.33469494676831        7.19018016581810
H           -6.34785949928870        0.73120243702350        6.21260847428029
C           -7.68794435960468        7.17693491463591        6.39900692776066
C           -8.87020083707711        7.42310871317899        6.23432979961901
C          -10.30074566238300        7.68774422187203        6.07952048704370
C          -10.97900947951703        7.46369521461855        7.44186178022705
H          -10.85660892678720        6.42725542340099        7.75534338761476
H          -12.04369404448530        7.68681759334981        7.37238615511904
H          -10.53202355390557        8.11039509569637        8.19714153721310
C          -10.90185613121746        6.73734976674434        5.03392878219955
H          -10.42464244750307        6.88431040919690        4.06567498177111
H          -11.97148151407136        6.92083475891020        4.93119403237038
H          -10.75230009232445        5.70208583012785        5.33936455231758
C          -10.48982693163564        9.14688996107280        5.63318891355502
H          -10.07062501353032        9.82613753594520        6.37545816296296
H          -11.55052584065509        9.36783694548761        5.51387766518622
H           -9.98555319271259        9.31808569519989        4.68236641967177
C           -4.90769012657180        4.15783993047519        3.38191983562484
C           -4.12598618830406        3.93750769413575        2.47557784760739
C           -3.18548615455700        3.72075958694924        1.37516169809136
C           -1.86215671039595        4.42929808871071        1.71197136608889
H           -1.13117532196505        4.26489473685355        0.91996413486597
H           -1.45723820056053        4.04667414424858        2.64889045720388
H           -2.02648016943023        5.50158647612404        1.81873755825834
C           -3.78645716957180        4.32829857513367        0.09611289992385
H           -4.72682861759554        3.83515454309934       -0.14945595640168
H           -3.09559995907179        4.20536061896269       -0.73823499989930
H           -3.97826491254617        5.39174752443445        0.24040461939231
C           -2.94018379573472        2.21668903367470        1.17966525954620
H           -3.87978086214359        1.70475309603573        0.97285541848147
H           -2.49899731684999        1.78594701040946        2.07822099140130
H           -2.25893057356892        2.05411257611153        0.34407239586102
C           -8.76891758392197        3.75016618090624        4.38660028328164
C           -9.55662421446723        3.55945178213002        3.47599531225880
C          -10.50173488743248        3.31787821053329        2.38642011753330
C          -11.91555216983178        3.18182040096311        2.97828682692772
H          -11.95073391386771        2.35195097267174        3.68392125607505
H          -12.63791103102652        2.99832339830874        2.18261360101586
H          -12.19429071371549        4.09650543932565        3.50168954341457
C          -10.11054002044289        2.02117174572767        1.65808412551866
H           -9.10673356967399        2.11121985605286        1.24300368109476
H          -10.81023749044384        1.82178823510249        0.84609928846063
H          -10.12698817279372        1.18012879781305        2.35109197190861
C          -10.45702442214025        4.50403708743185        1.40855504567734
H          -10.72396033337222        5.42717388889795        1.92334914501655
H          -11.15987996897569        4.34348207865871        0.59066813536125
H           -9.45493702350388        4.61277580651364        0.99364033134459
C           -8.99793336678768        4.39453322522492        8.37443138575227
C           -9.49866462691429        4.37853102451816        9.50264990873135
C          -10.33692642650145        4.12389101934131       10.68489813948835
C          -11.28391998885881        2.96255319985034       10.34176107084288
H          -11.90307165009791        3.22170422010424        9.48314811733960
H          -11.93200934998852        2.74691281903931       11.19148902653462
H          -10.71073470987654        2.06735364282499       10.10086097509657
C          -11.15030252708637        5.38581493586923       11.00993260511971
H          -10.48060231375660        6.21301155649273       11.24536613827650
H          -11.79990770165714        5.20502431553368       11.86655827579044
H          -11.76536342707843        5.66912354174828       10.15583247447423
C           -9.45869765516429        3.74721206549817       11.88623603636483
H           -8.85966764607002        2.86633336204915       11.65680733797501
H          -10.08060199744249        3.53180334588774       12.75537992413767
H           -8.78648715213217        4.56921384744106       12.13213690504664
C           -6.86451917169159        7.33076915285357       10.71155941571343
C           -6.59491088411764        8.09055985556539       11.62348966115730
C           -6.25055225259252        8.98123432299049       12.73234201914601
C           -5.07680659198967        9.87902107428042       12.30621833326185
H           -4.19831223528205        9.27095827735115       12.09043011594803
H           -4.82776782858971       10.58113034704523       13.10216310082692
H           -5.33692371787830       10.44198409266366       11.40992302294257
C           -5.83496856667458        8.12275140389590       13.93867118748233
H           -6.65874232131977        7.47847567873278       14.24542404063003
H           -5.55627972352738        8.76212400427060       14.77645581038997
H           -4.98218999193058        7.49622116479683       13.67595263298852
C           -7.46753134574957        9.84821249482795       13.09258686445881
H           -7.75730196972628       10.46338947305537       12.24081341055560
H           -7.22590308793556       10.50232637249159       13.93060518446317
H           -8.31156901107016        9.21713725521974       13.37026213810404
C           -5.19039767564088       10.34615266397059        7.37649658330586
C           -6.14624987539921       10.93074700554697        7.87665611231038
C           -7.29916748311836       11.63275810434363        8.43392635678041
C           -8.23867603963120       10.60055071450458        9.07988515975228
H           -7.70848462951042       10.03664503647470        9.84709969381736
H           -8.60086638146443        9.89959841646194        8.32776565501427
H           -9.09318821266354       11.10147880188011        9.53476190597014
C           -8.02194114354889       12.37154317104251        7.29578558002031
H           -8.89244379607659       12.89987014026405        7.68435497140797
H           -8.34968832232805       11.66221636216366        6.53578960852661
H           -7.34989008947925       13.09289603796933        6.83076678181050
C           -6.82038081674488       12.63716841318235        9.49298356795137
H           -7.67314580170946       13.16252739367241        9.92254659552654
H           -6.14559583777933       13.36499615034990        9.04422239654568
H           -6.29038934486586       12.11568907395431       10.28962515678904
C           -1.49004781400533       10.32087783681051       10.43536232952451
C           -0.61822933678580        9.76805740534128       11.07883129040306
C            0.41010873228700        9.08276760252432       11.86089920423608
C            1.58878791939245       10.04058778610115       12.09843147587325
H            2.00692713571016       10.36391739661647       11.14502017578740
H            2.36823312507804        9.53879583713487       12.67210403238964
H            1.25597012973638       10.92005499465676       12.64938102074883
C           -0.19590455351192        8.63935323277141       13.20251826990804
H           -0.54941260352788        9.50472248997106       13.76285723200571
H            0.55347635644103        8.11624798388416       13.79690829204352
H           -1.03764795896643        7.96851132419347       13.02916013908717
C            0.88879332575628        7.85305350870733       11.07416810965893
H            0.05998516230429        7.16153491014867       10.92026502954045
H            1.67572090560169        7.33600602063551       11.62256350776963
H            1.27306322281278        8.14895407100378       10.09903361079021
C           -3.51430006739451       13.39094379137284        8.25578582330796
C           -3.41131441114794       13.86018614487672        9.39366288503668
C           -3.39868158632071       14.74430262184986       10.57002074467478
C           -1.94687405211264       15.15896435218587       10.85727118778722
H           -1.91194508385263       15.84986692730595       11.69981341454027
H           -1.51399897810703       15.64648957313937        9.98375568629633
H           -1.34754596272042       14.28072443228635       11.09758286774814
C           -3.98500570622809       14.02685956976672       11.79354144325675
H           -5.01265555638271       13.72144764976729       11.59909012025131
H           -3.97506846797046       14.68963482030775       12.65917189543060
H           -3.39766293355742       13.13861734851980       12.02637515318643
C           -4.24365973090416       15.98348976378186       10.23346918580896
H           -5.27056259934661       15.69088703182888       10.01460491396434
H           -3.83361978823520       16.49464053143984        9.36270613077732
H           -4.24683422088447       16.67303335135966       11.07793360030164
