438
 energy: -616.638319854488 gnorm: 0.000494213747 xtb: 6.5.1 (579679a)
Au           1.12848971259139        6.07302876085861       12.35427834517732
Au           3.18139402685971        9.82822391667177       14.64896450135544
Au           2.06116349708486        8.81782099723466       12.17280478670141
Au           4.07633250293105       10.88453337703532       12.25154933102121
Au           3.47048403640768        9.50093572238283        9.66789574617240
Au           1.44018713562371       11.41712539655202       13.30813151172116
Au           0.64279271902454        8.99577781299591        9.59346998948800
Au           2.37285716652556        6.97475902862017        9.70783798072987
Au           5.54712488641802       12.97370802859856       13.63707645748138
Au           3.73391024746432        6.40087972871606       13.16123175195851
Au           1.78416390345944        7.02274554349657       14.89365813346045
Au           2.95892374831308       13.14362355323457       15.26045636766577
Au           3.15666597104900        3.99173051563598       11.43537189524506
Au           5.66820397558184        7.39008598784490        9.71058514727001
Au           6.50980807028136        9.34760008435171       13.15449968551327
Au           1.35643965611470        9.93225991632539       16.89176953971938
Au          -0.47185027081723        6.19920048043163        9.08301547759755
Au          -1.01462083375135       11.43315855474107       11.80083747095514
Au           4.44335845998752        6.69728043289281       16.24669379939904
Au           3.95341956435135        9.12690633303845        6.80858527671244
Au           3.01300821476414        3.91643720349249       15.14472585677775
Au           1.09906984719832        8.53425284460289        6.53618686927987
S            5.84619920093575        7.28598176247924       12.10624549298176
S            5.22483947785980       11.21199254932764       10.05814938094038
S            3.86303161943142       14.63565257408591       13.62511650346246
S           -1.08564348459064        5.87325109168969       11.31902399039938
S            0.39733649584895        7.81278849776830       16.73000011692908
S            5.29311936439262        8.78939670333351       15.59948259378140
S           -0.63064185334306       12.71113627064890       13.74078356790495
S            7.32456466009869       11.43619942036376       13.93251161555968
S            2.34691344977098       12.02664561642650       17.27523599037603
S            4.01936601795117        5.10096600521005        9.56216957426177
S            2.29089007355350        2.73742130720784       13.22879350463804
S           -1.51560416030472       10.09062070867734        9.93893223413706
S            5.68261720506195        7.59517361616816        7.34369367178276
S            3.54392053370344        4.77925180669926       17.26024953940103
S            0.26367438532374        6.34856081449190        6.85149709590996
C            0.20199668207136       14.54225956462766       11.80639622567591
H           -0.22917987771834       13.88989333016568       11.04224509445770
H            1.23697861895143       14.22649325435882       11.97035950412766
C            2.60408088511644       14.21192381728973        8.93427794188012
H            1.52365116230434       14.31461645923844        9.08897810851626
C            6.90672408317214        4.80233628307585       11.79745119637141
H            5.99139388830073        4.40987555052152       12.25038771238294
H            6.72592786673203        4.90430469426207       10.72386115817822
C            5.86759498517217       11.07664471791145       16.96232652132642
H            4.89823916492289       11.46816705010820       16.64242737089978
H            6.59414804239338       11.29271995460016       16.17541594082946
C            7.22876456887086        6.16627756836136       12.40211538953853
C           -1.77276444038223       11.30402196003558        8.62654605860840
C           -1.48612992635361        3.73527284058363       12.92581195371032
H           -2.15624443303112        4.38848845733499       13.49118957931001
H           -0.47330339882036        3.87068989987530       13.31814418825056
C            3.07962434317915       12.90102204019579        9.56468161642485
H            2.85378866388159       12.89327900374344       10.63553444887326
H            2.55616901433575       12.05440298222864        9.11045254791295
C            3.53839600464200       16.88858397025854       15.11128616683873
H            2.83932125931699       16.34315096589687       15.75194326444804
H            2.98132936617541       17.27559403428139       14.25495546297642
C            0.03322797121082       15.30664399356310       14.17100836753338
H           -0.52768073180331       15.21153335487337       15.10398459735693
H            1.06151952570932       14.98944416990828       14.36393889901842
C            7.20060825660900        8.60174853970684        5.35835317868207
H            6.34448515565647        9.21279815924992        5.05529758427713
H            7.09241466519297        7.61974069741750        4.88905376143646
C           -0.54194285385704       12.17253917227427        8.37728107812030
H            0.31006653421210       11.54130870254320        8.10537196211537
H           -0.27840007853826       12.70824074017990        9.29322922363165
C            7.44091809530852        6.01937789866095       13.90617541571392
H            7.64918326307034        6.99719043956653       14.34948821575293
H            6.52632486973118        5.63422230531592       14.36660485218935
C           11.40054242760963       13.00985771357581       12.63278556166257
H           12.26147635990946       13.33284663336170       12.03948337721210
H           11.65574043156608       13.13028509392229       13.69029227925855
C           -2.93003831433950        3.94258837450623       10.89298397844544
H           -3.62087978389577        4.59757693351028       11.43132587323987
H           -2.94885597735000        4.22955204077333        9.83705208990925
C            5.31575104216801       13.92603864503889       10.00094305617228
H            5.11915156420269       13.93515726463061       11.07671985743906
H            6.39421963032987       13.81500645914043        9.85731182472113
C            8.62494703032524       10.49203452119350        7.08183793124611
H            8.70160109621525       11.48143553999091        7.54949729434910
C            5.76828008349967        9.56772625929722       17.17004348366816
C            5.60015353512500       16.70033074933968       13.71007763955538
H            6.38097902485099       16.01945570753258       13.35754360046600
H            5.06085091456236       17.07287059358536       12.83425420206265
C           -2.04046858763071       14.83855047295089       12.86555941854719
H           -2.61502920273809       14.71893936578213       13.78851551294280
H           -2.49107419660728       14.19451282617399       12.10433340752646
C           -2.11825878137131       10.53816115565145        7.35128684044684
H           -1.26910428643245        9.90463020812937        7.07777789928522
H           -2.97964795257644        9.88903886540389        7.53146662925400
C           -0.97208798991081        1.75781066785435       10.82871296133438
H           -0.27165746425178        1.12307638739984       10.27115901259067
C           -1.51402072910531        4.12140864368026       11.44622689030484
C            6.11062596402944        3.79625488731318       16.81371818029198
H            5.75075551101476        3.32193841136720       15.89572355725255
H            6.42522076538683        4.81274970635345       16.56053449244761
C           -2.24619279593562        7.22036265985279        6.06582101029688
H           -2.54842827473825        7.20603569639600        7.11724251801845
H           -1.81009082330509        8.19945156163371        5.85290135594374
C            8.28582955711232        3.68889469763981       13.56124324777272
H            9.10639798167885        2.99194438860520       13.75620863737733
H            7.38137347196583        3.28115656483943       14.02344061745159
C            0.16119728003044       15.99863862041676       11.32909625286992
H            0.71904792009927       16.08739982971248       10.38982985219713
C            4.63591784026198       15.94046172752527       14.62456407818385
C            3.32995537282842        1.25577705109721       13.18158302249820
C            6.67514002923503        3.76792063808110       19.68594208846966
H            7.03173547463718        4.27191890099513       20.59251266914869
C            2.08304956941964        3.37050804660267        5.75047756791898
H            1.87713808937483        2.74694539886520        4.87521966476355
H            1.33378016461307        4.16806674510680        5.78534973803628
C           -0.55449107037170        3.22339298251787       10.66986688164543
H            0.46408376295288        3.36510585898625       11.04086298784108
H           -0.56350428081104        3.50007536745626        9.61122078208005
C            8.49437585900872        6.72890286454103       11.75885920586490
H            8.71562629763923        7.71463645110610       12.17952277392221
H            8.33694548915439        6.85436974685012       10.68341725479463
C           -3.45984456836661        6.98846952707756        5.15837303355990
H           -4.20682325188905        7.76805674753993        5.35198898452315
C            8.33256087700738       11.78395118632689       11.36305831115619
H            8.09890525306428       10.73659412570219       11.14837725646726
H            7.44444852056277       12.36903411682516       11.11303910093130
C           -1.96143731669669        5.97234886010717        3.43491779055081
H           -1.63552919197184        6.01859463982601        2.38851616949779
C            9.34258000429846        4.40085261613574       11.40153445593405
H           10.17891270704819        3.71467439988456       11.56530832730803
H            9.19448910077086        4.50158158691164       10.32181977568722
C            8.98315703268974       13.41923761763958       13.13772083869358
H            9.20264762589768       13.54369084985830       14.20198637778333
H            8.10735068315671       14.03264830512492       12.90348808170787
C            8.50558561807409        9.26844925697895        4.90693052326690
H            8.49682302516047        9.37488685611964        3.81513337651373
C           -3.35576670324119        2.47655592248854       11.04962458263053
H           -4.37097946320947        2.35308272069307       10.65267294804780
C            3.02828575642116        9.29696519504897        2.18683477391374
H            3.15028014698246        8.28695832220354        1.77657305514840
C            4.53646863338172        2.87766833034223        5.59634255142924
H            4.37069357158302        2.24298625732458        4.72038140033434
H            5.53539189707870        3.31677634592484        5.51064873739754
C            5.72071160566538        1.64739039138366       18.76474521079287
H            5.39345021801367        0.62966486412716       19.01019340860962
C            7.00127133296538       17.32047840493257       15.69028005197305
H            7.79530993515344       16.64764086693923       15.35094494368552
H            7.46850281623529       18.14407038682062       16.23868092116955
C           -1.91611797480966        2.27233692645013       13.08386561236151
H           -1.89756470011399        2.00511767685470       14.14755691782755
C            8.62030496077610       10.65155836775178        5.55754475197614
H            7.77625231388240       11.27832148354780        5.25210589921377
H            9.54150184331220       11.14350352537164        5.23066110011061
C           -0.94470549486093        1.37372201572700       12.31202948936317
H            0.06792227043427        1.50304828474416       12.70905908618240
H           -1.22550523295954        0.32295186702640       12.43244583699856
C            4.81555054780364        1.59855705115181       13.27002221000160
H            5.09061977453316        2.25607946803534       12.44027336906286
H            5.01481231258620        2.13932699098740       14.20027636027348
C           -1.80121049208104        4.76410365682023        6.10430857413891
H           -1.04986356726501        3.98626530685453        5.94218627288164
H           -2.10951507739729        4.71627435702868        7.15337790546929
C           -1.17576465623233       12.39214887029238        5.97141831725053
H           -0.32819311257429       11.75551660625271        5.70242361453101
H           -1.35763536058407       13.08624838301657        5.14532200020317
C           -3.33618362013866        2.09440688190317       12.53437624389184
H           -3.65516783589419        1.05464235631504       12.65572343251585
H           -4.03337471386761        2.72826674463042       13.09129498702274
C           -3.01415287284095        7.05677869785003        3.69301926401971
H           -2.59291971256340        8.04412686082726        3.47816413130475
H           -3.87404780977976        6.90631271742361        3.03326384438730
C            0.01189104839917       16.76460490826770       13.69863569207928
H            0.46676990567178       17.39906463923460       14.46951701622257
C           -1.19627101650180        8.11713114438142       15.92674869651002
C           -3.60097827860628       12.41108277588289        6.60688161293246
H           -4.48901369198392       11.79341862616534        6.77362479230805
H           -3.82487110313927       13.11251071634578        5.79724192869174
C            4.16650817625072       18.05345074623621       15.88650095317074
H            3.37076884289002       18.72727624526001       16.22719740636635
C            2.90187043653219       14.18734486919441        7.43112763886678
H            2.39227836422720       13.33626609640381        6.96552030678574
H            2.53450738697047       15.10391853660117        6.95979450256174
C            5.13838914788678       15.23526659251116        7.87228522930006
H            6.21704758960739       15.14733942854361        7.70801294079435
H            4.80348869765158       16.17440019713148        7.42112595158152
C           -0.59009063618119       14.40666876631776       13.10409300557905
C            1.00573680959820       12.96365978044570       18.05030444193968
C            5.26295689667044       -0.59110686373412       14.39287435827490
H            5.46754627972067       -0.07790337039817       15.33807844567429
H            5.86085384542514       -1.50722082424902       14.37155064584685
C           10.74576453493205       11.37633237003240       10.84974963855661
H           11.59902268056126       11.67854967091614       10.23489351647426
H           10.52890087973364       10.32538469794194       10.63257366428634
C           -0.83829184902763       13.16667673233341        7.24870311976309
H            0.04649243936640       13.79013149356495        7.07351270619540
C            4.41310756092473       14.05308055343231        7.22019285619449
H            4.63376806662011       14.03351336138617        6.14527633396757
C           -2.38892380443785        1.57530072927329       10.27193537189129
H           -2.69587391284879        0.52923755862952       10.36698829039246
H           -2.40792076985908        1.83728795634596        9.20910678328943
C            4.53591813103140        2.43016055430186       18.18349271315696
H            4.16869321302496        1.93673172776689       17.27808477479080
H            3.71402693586032        2.46418483639040       18.90395398114791
C            2.72485838021779        9.19430904344829        3.68567688753081
H            1.81185447994352        8.61222286460334        3.84367997543449
H            3.54118424268440        8.67322284568016        4.19385364190117
C            3.32983232214316       15.38605076065523        9.60079834829966
H            3.12282542398825       15.38891719837685       10.67618649724813
H            2.97578216309901       16.33328982623608        9.18289863318679
C           -2.07401969467751       16.30039727313503       12.40237746818852
H           -3.11580212373526       16.60284716069721       12.23926819555632
C            6.22853179609540       17.86660105490185       14.48405087117291
H            6.91580964042588       18.40800615591883       13.82239280373985
C            9.52442223131035       12.23946673607728       10.51488498414456
H            9.27306713121698       12.12590855298659        9.45374118202676
C            2.26128233551441        3.42223929014490        8.24555765840857
H            2.18915289084086        2.82921366063401        9.16235507703431
H            1.50878968347808        4.21353371052676        8.29947313109724
C            1.42889163237697       14.42821099245598       18.16403584703976
H            1.57981580950974       14.84455383107124       17.16325566474991
H            2.37831564534091       14.50087383945385       18.70249755293971
C            6.30346080141734       11.75545599156953       18.26423787810850
H            6.36876061492531       12.83823889255902       18.09814295680197
C           -2.56138313632808        4.59138847478981        3.72463254391241
H           -1.81624653137146        3.81344829400564        3.53079113119954
H           -3.41614778682127        4.41110431550246        3.06562146953928
C            3.05640910654296        0.52717553388641       11.86434174771069
H            3.31971675107633        1.17825083692486       11.02499586920540
H            1.99135331716342        0.29350695899940       11.78292890439947
C            4.14520455131371       11.49996809945734        2.56654602750353
H            5.06886261558821       12.07477483258307        2.42619797526821
C            5.37650798422159       -0.41198966703360       11.89438635555012
H            5.65789977744655        0.23020688458387       11.05354521065113
H            5.97799326706554       -1.32428455730020       11.83840244076378
C           -3.49348273317647        9.03260893339856       16.31093887632169
H           -4.14010383221641        9.54029438376849       17.03735927658654
C            3.04822974221214        1.41250710621301        6.98491890545656
H            2.86305229937018        0.75903026845808        6.12694907980916
H            2.98237569529514        0.80408400802264        7.89284837657484
C           -1.44051147616696       17.19885958978188       13.47095353330446
H           -2.00288547747642       17.11999686408990       14.40673841743657
H           -1.47192413320267       18.24332630515159       13.14568321502091
C            4.98498493146054        3.85225803283843       17.84305010963920
C           -3.18621111759738        6.96113716948526       14.94189582952301
H           -3.61136552983679        5.98208299679800       14.68728660131827
C            9.88053376982439        5.62311294140093       13.52425950646738
H           10.11827645661247        6.59748249864325       13.96240380223335
H           10.72283977161546        4.95174374214614       13.71629375833048
C            6.84983806234576        1.58727470897990       17.73013003373616
H            7.69401378632971        1.01688404439087       18.12920847089945
H            6.49952905018808        1.08045504684741       16.82517277876410
C           -1.79729834702269        6.75875448079383       15.56062805376780
H           -1.86651565557102        6.13172925040252       16.45400814316207
H           -1.14052700392472        6.25315307907072       14.84684574666640
C            4.70322006729089        2.93061844982311        8.09514719118463
H            4.64868773808265        2.33846865841305        9.01418823357359
H            5.70327598587821        3.37000600750840        8.03810956550457
C            7.67749258367858       11.21375232901214       18.67512922218449
H            8.41252855978036       11.43465330566845       17.89471054343706
H            8.00995399292749       11.69763624481228       19.59861739067888
C            2.55536088068117       10.59259857908148        4.27720739576364
C           -2.41380098783632       11.52370826216592        6.21605372020975
H           -2.65637334624565       10.96287529745153        5.30455032835705
C            4.83750494759003       15.24106032804115        9.37522260725641
H            5.36279590171096       16.07764652603783        9.85300222424010
C            4.75422879633623        9.27024116072819       18.27166618724736
H            3.76615517752142        9.63128909270169       17.97288178468031
H            4.67885378585018        8.18992491725461       18.42688031085826
C            7.32143015566974        9.82486898665300        7.53157604033911
H            7.29636287564114        9.73419835224093        8.62204238940213
H            6.46714377065051       10.43991403309964        7.23747642819988
C            8.07219878653287        3.84092962463747       12.05131424557274
H            7.83334437930972        2.86384204123683       11.61351137739355
S            2.21087743383692       10.57625393527433        6.06023187537955
C           -0.75120674303992        6.20484203124980        4.34887295670030
H           -0.30860137571603        7.18503498842456        4.14505213482150
H            0.01454272063621        5.44683806279090        4.16115925403268
C            0.80406336508796       16.89221603053076       12.39294698179496
H            0.81245684370231       17.93381360087173       12.05787986952407
H            1.84094616310410       16.57848186572799       12.55232866840384
C           -3.06271660606421        7.81240058823949       13.67403195937126
H           -4.04783080906486        7.95138031677054       13.21846385790844
H           -2.42302865372379        7.30532577806302       12.94290908007180
C           -1.07807464469408        8.97068844639930       14.66651091523693
H           -0.41495084924950        8.48378275296542       13.94698751344233
H           -0.63866374296880        9.94160878561791       14.91498465674740
C            5.64801044518307        0.31346353923570       13.21722446244445
H            6.71225591491073        0.57177704514749       13.28414611232791
C            0.13798500042822       14.63359598838010       20.30241097204469
H           -0.62867095591865       15.20317294982283       20.83653557460506
H            1.06930916575521       14.70426359710620       20.87305396202336
C           -4.09800417188468        7.66999857214438       15.95047906214821
H           -5.09410823397266        7.80744160403744       15.51873734997750
H           -4.20305665123636        7.05924718751600       16.85269977156772
C           -2.46226032674886        9.16905115351659       14.04616239082074
H           -2.35834227624328        9.78204483096633       13.14042435815640
C           -3.25349497573793       13.18280724662768        7.88544533863145
H           -4.10217208057533       13.81525975316606        8.17382882291164
C           -2.95479308600092       12.19378569971481        9.01854697040255
H           -2.71046102904912       12.74016494657330        9.93479525864037
H           -3.83108650723702       11.57264392164252        9.22354467970534
C            5.27569164630880       11.46337408956400       19.36149541020229
H            4.29610769593394       11.85181286703130       19.06132267063266
H            5.56750659248605       11.95746153417126       20.29319385368180
C            2.94387654237924        0.35538905284826       14.35541394042147
H            1.87627261500958        0.12298673584859       14.30810709956676
H            3.13175599000248        0.88049243889949       15.29705636640984
C           -0.97654761970178       15.12809138101365       18.11699747065949
H           -1.75738559495384       15.69477576467217       18.63357869123105
H           -0.84923095747922       15.56596097036372       17.12257244284982
C            5.49063818985084        4.55200292786304       19.10728970373836
H            5.80028286792975        5.57228587449752       18.86043522407306
H            4.68274381770282        4.61551492233350       19.84149470499045
C            6.55906775081537        9.40028443957757       19.99183079858234
H            6.49271704970253        8.31994436811768       20.15692743655960
H            6.87823951880576        9.86564187129641       20.92935360815088
C            5.18908926323776        9.94858115108255       19.57478094564348
H            4.45151838677818        9.72844643533156       20.35631641199966
C            3.77222471048949       -0.93519219702950       14.30002059023582
H            3.49132286431021       -1.57868738693226       15.14266536536221
C           -0.28948887044052       13.16620296902841       20.18158661888911
H           -0.42984479064235       12.74167715926253       21.18323797188350
C            0.80416173793580       12.37831159699036       19.45010638703666
H            0.51614169589034       11.32602073491816       19.36679543706230
H            1.74353240584521       12.42469255118509       20.00863930347551
C           -2.10593872703549        8.82713229920355       16.93220107111974
H           -1.66880408029506        9.79403918400239       17.19995069878480
H           -2.18299444896021        8.23071909491902       17.84567050956449
C            7.80498672257922        3.71436127162923       18.65106036672667
H            8.66195908028143        3.17096297543705       19.06040504405680
H            8.13465391415343        4.72894995487353       18.40544672517935
C           -1.39392008175987       13.65829827668307       17.99426269182969
H           -2.32744050690805       13.58823633808344       17.42252711273197
C            0.33814985156136       15.21821744975690       18.89930281809292
H            0.64747039629694       16.26773860857560       18.97917396108761
C            7.29622234333312        3.01215397707258       17.38705377845146
H            8.09840319551355        2.97521889934527       16.63959486538586
C            7.57969859433914        9.69814796027782       18.88712487580210
H            8.56138332601078        9.30477542897540       19.17898974864774
C           -3.36595381616035        9.89213902564441       15.04778289996906
H           -4.35361440639346       10.06116463165417       14.60846453367283
H           -2.93541107916389       10.86737934835716       15.29825469895108
C           -1.28938733607869       16.43084331055997       11.09342778132675
H           -1.74464224033818       15.80024607570243       10.32308273784265
H           -1.31657828221727       17.46605083948756       10.73967264340808
C           -2.02029116881020       14.05870560563810        7.64001558414843
H           -2.22420767458688       14.77985923597368        6.84258631372513
H           -1.77696864421326       14.62055743925270        8.54739208214482
C           -1.60158124883457       13.06855954539036       19.39411057505853
H           -2.39235097484935       13.61525814058278       19.91684144130418
H           -1.91112425525695       12.02155881588860       19.31489972371729
C            6.22401542052828        2.34459832811209       20.03414696048115
H            5.42547475943466        2.37960818427754       20.78162289747494
H            7.06034877266960        1.78233590060296       20.46058930909770
C            7.13718176334269        9.02080102730704       17.58212361683592
H            7.86655890915653        9.21410934429075       16.79014728012967
H            7.07355613331955        7.93723536783598       17.72344185378387
C           -0.30106567657456       12.86651560886143       17.26725216609358
H           -0.16567096054947       13.24733100068121       16.25146985499905
H           -0.60151609587675       11.81736692193259       17.18127432391130
C            4.93231415881951       17.50939335415451       17.09714520699091
H            5.37257814766818       18.33529329076250       17.66402584521440
H            4.24760179988428       16.97139774248054       17.76059384414064
C            6.03427766322336       16.56344127766411       16.60788979090080
H            6.58289845432641       16.16107040481053       17.46841690286898
C            9.66242717456646        5.76964597277228       12.01386666109336
H           10.56873234177971        6.17703394858159       11.54954639577930
C            3.65188377716579        4.04161048850684        8.13742385921026
C            8.60743869103067        5.06020909762548       14.16586182787090
H            8.75579389293986        4.96003845682294       15.24804940155359
C            1.39592097899331       11.29910636389216        3.57034212112929
H            1.26021068341912       12.29746581601332        3.99497434394832
H            0.47263999860493       10.73349382446558        3.72489943022845
C            1.99861575872192        2.52919893306635        7.02820566783686
H            0.99652152036921        2.09075046021637        7.11499018628687
C            4.32170276847882       10.09398419302128        1.98199850712579
H            5.15452043254015        9.58605204300430        2.47904383013694
H            4.55489173332722       10.15890521082141        0.91489110686824
C            8.67116142053623       11.95118439578059       12.84126524329995
C           -3.01004056751614        4.53062101986755        5.18953331576371
H           -3.43563102181341        3.54222138617296        5.40198077949277
C           -1.20003219931167        6.13941094235784        5.80998948827734
C            5.12626817681100       18.81690862838970       14.96639319014069
H            5.57039862528240       19.65862092636066       15.50655506565784
H            4.57841903772083       19.21852387225109       14.10819424182498
C            5.40142810899421       15.40296368752322       15.83289228061920
H            6.18191953934845       14.71223591000384       15.50103970825625
H            4.72258380011093       14.84483753251764       16.48392149549601
C            1.69740242138953       11.40673491744089        2.06913402733357
H            0.86233570472590       11.91562214801069        1.57221379405202
C            4.44478175023200        2.03631592027550        6.87500949478023
H            5.20009569874121        1.24117165735523        6.84601448788873
C            9.83293639594708       13.71189147515697       10.80544144432794
H           10.67202150632142       14.04639564596472       10.18775780739975
H            8.96370028923161       14.32928065551154       10.55677771402978
C            3.84291479735299       11.39318807619186        4.06585667241321
H            4.67011976465828       10.89420023467189        4.57992512645083
H            3.73318339447576       12.39057437158017        4.50135454018308
C            2.98515915431087       12.21183298722347        1.86111590945058
H            2.86414849448005       13.22030728204026        2.26875888381961
H            3.19881075370756       12.30375820319058        0.79182997649382
C           10.17849737736764       13.87011293587129       12.29010987801623
H           10.39782714393687       14.92270409692666       12.50753905790784
C           11.08507225752930       11.53907240035118       12.33567786846246
H           11.95597296574658       10.91992142827343       12.58385459850982
C            9.88849914699120       11.08871625424516       13.18419278241296
H            9.65979628648472       10.03726337465399       12.98342753931730
H           10.12048910270591       11.18397067528841       14.24886460156990
C            3.48071773376042        3.98813848147839        5.64452457674572
H            3.54553512967520        4.59712439884787        4.73429425383047
C            1.86593311896585       10.00217801454246        1.47918145922909
H            0.94428844050357        9.42719321500276        1.61420816767536
H            2.06755857527190       10.06908839616411        0.40576359190649
C            3.73436316639933        4.88178402096077        6.86394901858832
H            4.71928576970194        5.35150013076269        6.78737912148603
H            2.98599334544182        5.67946146844854        6.90370461754175
C            4.58367250119242       12.74753140050783        9.35381305308228
C            7.20503536105148        8.44916636899932        6.88124512129558
C            8.38945529231654        7.57837611827577        7.30340658255801
H            8.38527425868608        7.45854824051437        8.39140870208954
H            8.29625871038088        6.58423423906569        6.85692588636418
C            4.89515145870662       12.74392393842838        7.85475017670001
H            4.39496792723118       11.89636144048418        7.37889207560628
H            5.97235761999456       12.62852662466415        7.70507637987873
C            9.69588722568179        8.24513012381799        6.85387106873885
H           10.54338498492541        7.61924816847549        7.15955400757387
C            9.69554821628990        8.39828606008720        5.32831275542144
H           10.63092297111668        8.86234871156581        5.00081984265209
H            9.62359505134082        7.41417484112723        4.85476112179141
C            9.81383519107455        9.62503395109973        7.51038466951754
H            9.81912006861003        9.51526448236084        8.59938796246190
H           10.75284973046835       10.10270448138835        7.21468301065979
C            3.88611845967568       -0.76078758054075       11.80832559364608
H            3.68426645407883       -1.27738624838678       10.86199584904756
C            3.49617489056546       -1.66734312516369       12.98154170037984
H            4.07376957171929       -2.59595634932619       12.94354093409517
H            2.43517622630601       -1.92707320837234       12.91420318196391
C           -4.06486617934652        5.61137438172175        5.45289935131487
H           -4.93845850140133        5.44358934982038        4.81571244562427
H           -4.39376693139533        5.56454380685475        6.49575737102352
