311
 energy: -450.286299738370 gnorm: 0.000661733538 xtb: 6.5.1 (579679a)
Au           0.00010907687838       64.78472068856308       32.77612941382119
Au           2.71774071256506       65.50260681081741       32.88848219135401
Au           1.80070433590768       63.00761429807524       33.79821575677654
Au          -1.06708320422662       62.24717101887975       30.84032512768148
Au           0.98456549894414       67.88124674744635       32.08463209336057
Au           1.73666514301946       63.65825450051690       30.98015228235383
Au          -0.04164595585030       65.64233895288542       29.41487998907565
Au           0.90634515611846       61.50351512978405       28.47748508558456
Au           0.71663638920869       60.40009112456945       31.67404079688289
Au           2.99606520455783       60.14525679709791       33.50029923069471
Au          -3.69913641516788       60.78023389157119       32.55047124123274
Au          -1.56378647134280       59.26019886975284       30.01427325294264
S           -1.15377205809381       63.65137753003455       28.80451309658755
S            2.56893267227576       63.17104246681394       28.73727673297820
S           -4.74772819717452       62.76708443138876       33.23935100805310
S            1.13317930349706       67.67403128947974       29.63483653166145
S            3.39387886238609       61.70759831513310       35.22759836859463
S            2.45093158441531       58.64008129109286       31.74305474745285
S           -0.43832528180325       59.60676644260938       27.97348152363334
S           -2.78834224649832       58.68492931640372       31.94827088924604
C           -0.17726904408801       68.85540886341825       29.22944467869364
H           -1.03365723781642       68.65817466065057       29.87762629053454
C            0.30806863511766       70.27457554446573       29.49724824515926
H            1.17706950826911       70.49673531744867       28.87003473076789
H            0.61676200328098       70.36106827195603       30.54301080291529
C           -0.82522048680339       71.26258324159721       29.21264411566958
H           -1.64682101209782       71.07249882943565       29.91341785398031
H           -0.47364447563750       72.28563213526174       29.37766284171704
C           -1.33878945558130       71.11472848623754       27.77895850530536
H           -2.18396705692922       71.79187323592294       27.62144366550224
H           -0.54646742772769       71.39842760125197       27.07730272244777
C           -1.77421415061756       69.67390507450131       27.50099764104664
H           -2.09484256142294       69.57832847131543       26.45934670903009
H           -2.62452500077241       69.41244170925566       28.14237890747911
C           -0.62629812182807       68.70132679904977       27.78197057210166
H           -0.96677580243051       67.67530828942272       27.61659923564908
H            0.21432002830902       68.89020294633420       27.10687040433961
C           -2.88706606525662       64.14628439744669       28.62062040716503
H           -3.13605989062064       64.83118658973096       29.43726471144161
C           -3.06891848512526       64.86253294297951       27.28721738976245
H           -2.43378101065349       65.75257892961258       27.26613392338404
H           -2.75040358510261       64.20272808809062       26.47406117425060
C           -4.53249742513119       65.26939888916073       27.09516222575950
H           -4.80313479013283       66.00968935598408       27.85513252882245
H           -4.65592014605290       65.73841463937643       26.11442577412817
C           -5.45913764141786       64.05659431798288       27.20796528982141
H           -6.50049777787341       64.38241934247958       27.12399121487239
H           -5.25618145737118       63.36395915277799       26.38374185219733
C           -5.25321854552301       63.33419427413492       28.54117796490008
H           -5.89192746635689       62.44707689272850       28.58551592345056
H           -5.54030592033396       63.99561779857326       29.36650604119133
C           -3.78946484206740       62.92209884848577       28.70852239275857
H           -3.50848705336145       62.19824707214605       27.93698114055938
H           -3.65233032055352       62.44234113433258       29.68182719367933
C           -4.16240163690626       57.70466320468965       31.31008025193388
H           -4.79380798802384       57.46570117872155       32.17231052332406
C           -4.98900963062443       58.45725073938662       30.27190289752192
H           -4.33631849055154       58.76904636011348       29.44947044290734
H           -5.40461802473198       59.36241981679758       30.72394062596468
C           -6.11876922757918       57.57791827830740       29.73215023641349
H           -6.81341354736861       57.33538435201288       30.54375691623293
H           -6.67494228996514       58.12774594361631       28.96714981056788
C           -5.55583246700805       56.28613585713617       29.13501754514572
H           -6.37670898029217       55.65367212737679       28.78348128265738
H           -4.92347288338102       56.52680905042466       28.27351944135496
C           -4.73107913448888       55.52864431506877       30.17807738918000
H           -4.30310856803789       54.62748104861590       29.72867979437726
H           -5.38017674944915       55.21637916296797       31.00355283068886
C           -3.60477028389542       56.41266231042363       30.71921716207929
H           -3.04416024334694       55.87381400155041       31.48791302011822
H           -2.90826694730207       56.66016928869929       29.91104575249048
C           -4.45919102646201       62.76726587715153       35.03222466041903
H           -3.41962091432125       63.04562723818501       35.22426548868623
C           -5.37279464132571       63.81852501978976       35.65278709063895
H           -6.41773311296346       63.55779375549326       35.45597788829944
H           -5.17704093429295       64.78686176396926       35.18469118708294
C           -5.11997944812261       63.90574764238360       37.16073678640014
H           -4.09564045151792       64.25527007586780       37.33458954651798
H           -5.80191979261053       64.63753326752231       37.60476856184336
C           -5.32305128840277       62.54347192459749       37.82725140933213
H           -5.07564085584292       62.61608592793202       38.89077409543872
H           -6.37643504307622       62.25136606456523       37.74737211916108
C           -4.44742572349292       61.47547859018341       37.16888644793868
H           -4.64642841944086       60.50067664002108       37.62437371419061
H           -3.38812491872770       61.71092169568877       37.32606059665911
C           -4.71542699980007       61.40424436107322       35.66343978167168
H           -4.04627435531561       60.66552077125088       35.21392093715926
H           -5.74541179215018       61.08936984542120       35.46887969338997
C            1.54448591461297       57.32860140649674       32.60663856187572
H            0.90794759533537       57.76809728540263       33.37920937078376
C            0.66936977478400       56.59137870266014       31.60018925338731
H            1.29570071181129       56.21275669540498       30.78627660612999
H           -0.05254720346008       57.29144242289675       31.17022809511291
C           -0.07478896254429       55.43678583791635       32.27209926029864
H           -0.75624334997862       55.83669092501719       33.03089154490789
H           -0.67464844859181       54.90517588770626       31.52722446998775
C            0.91474245863088       54.46916189539332       32.92491558971266
H            0.36786401257209       53.67089271776991       33.43609555729346
H            1.53788709241317       54.00740817231824       32.15099284249021
C            1.80600549235260       55.20556520704866       33.92754702187999
H            2.53551286590214       54.51062413183512       34.35446125336101
H            1.19002027658743       55.58983684054482       34.74804811864895
C            2.53977319745998       56.36969028693195       33.25495007365475
H            3.13238290403983       56.91193007556018       33.99688155730411
H            3.22547994408734       55.98991331799672       32.49058543088886
C            4.08341738660589       62.21558812937637       28.97575215572002
H            4.82717793187341       62.91869187978993       29.36340216861246
C            3.93361341322253       61.07099258462577       29.96702557522140
H            3.14608822288530       60.39171377910761       29.62722834472728
H            3.62608418441678       61.47138980828758       30.93618183136210
C            5.24105656408091       60.29442340152502       30.12026255177968
H            6.00761370538758       60.94459826653552       30.55552661151876
H            5.07874776678493       59.45610341556491       30.80409995609568
C            5.71647458969576       59.77350220749950       28.76343127417116
H            6.67382789771862       59.25655666946110       28.88014526804238
H            4.98971445033587       59.05075462997578       28.37630898660572
C            5.87007027821887       60.92607930559073       27.76844857005261
H            6.17585826021211       60.53520385531133       26.79317304116087
H            6.65275498758553       61.60901641946604       28.11687312952107
C            4.55335584058201       61.69378977797859       27.62068268112205
H            4.68527424679245       62.53340368998180       26.93276538232249
H            3.78505619931075       61.03625320019020       27.20152448334372
C            0.78377396770054       58.26848763449637       28.00989161189696
H            1.29443833895706       58.25638130674337       28.97870899930169
C            0.05528918214481       56.94351390792743       27.79930453335713
H           -0.64580020105484       56.78212766818401       28.62300383899676
H           -0.52567994287816       56.99490313601774       26.87269959576570
C            1.04780620051992       55.77958601251472       27.73138858479187
H            1.55810335538562       55.67861875075299       28.69532000288850
H            0.50576313600750       54.84836357923628       27.54092392159228
C            2.08589046687545       56.01138204710036       26.63173134784768
H            2.81047374948435       55.19129855208092       26.63127419047055
H            1.59013100411725       56.02278641597701       25.65479115374895
C            2.81008379702489       57.34075445795636       26.85328006798030
H            3.52706647141037       57.51264084091201       26.04504850820987
H            3.36783494370380       57.30213299852866       27.79548198943383
C            1.80819762353247       58.49619889493432       26.90355783126268
H            2.33820373029837       59.43308896969091       27.09252016534014
H            1.29332976141531       58.59126223159390       25.94219050356038
C            4.95955909090167       62.52286975428839       34.82687781632323
H            4.88220869428549       63.53434480979913       35.24008110140963
C            6.10143715789300       61.78946195486777       35.52574194718005
H            6.17882154543213       60.77218469446996       35.12836508148675
H            5.88886361355217       61.71618850722809       36.59582803309164
C            7.41632436920858       62.54429097740515       35.30497446853982
H            7.34621810062092       63.53533427057287       35.76721895097015
H            8.23537197202144       62.00540698105892       35.79108631269636
C            7.71373707346928       62.69631863855980       33.81073170741973
H            8.62843754603861       63.28165614232343       33.67624384413859
H            7.88069775778669       61.70686967257900       33.37057818684728
C            6.55137937476161       63.38176797604635       33.08932858454498
H            6.75348746963778       63.41866488847155       32.01454236751257
H            6.44301214840092       64.41289950813632       33.44379790370192
C            5.24717461237862       62.62291790298975       33.33474200318258
H            4.42727057086870       63.13986624617367       32.83292993674957
H            5.31307350261588       61.61554165342840       32.91051002087224
Au          -2.71750461504657       64.06745527069752       32.66305411891388
Au          -1.80164375417792       66.56188792685897       31.75387443770250
Au           1.06624282422638       67.32378808655186       34.71161780914967
Au          -0.98464614357686       61.68935574489220       33.46621662167682
Au          -1.73713078420403       65.91178217784700       34.57157663260021
Au           0.04424264386732       63.92543975630458       36.13787608474037
Au          -0.90650829871641       68.06679192012946       37.07438058768292
Au          -0.71570135082999       69.16888528176776       33.87818443596400
Au          -2.99570051246287       69.42519259106714       32.05100125637814
Au           3.69909332765031       68.78975849112510       33.00117049893959
Au           1.56428958575222       70.31081979751740       35.53806715332135
S            1.15367733238882       65.91885961136049       36.74723674069649
S           -2.56900724926910       66.39912425258449       36.81466268822353
S            4.74788657208982       66.80295210767424       32.31244982356576
S           -1.13354559229268       61.89570888600628       35.91664853372985
S           -3.39403484234472       67.86259365246374       30.32409612257075
S           -2.45077366595234       70.92991590119094       33.80886116507019
S            0.43829648228176       69.96316028082670       37.57831994700970
S            2.78837402384906       70.88504668686798       33.60337582383803
C            0.17719835781570       60.71470572627026       36.32229380963160
H            1.03359649009738       60.91199694473647       35.67413146995281
C           -0.30806760435506       59.29547548370974       36.05457412021048
H           -1.17707126309796       59.07329015751625       36.68177642830528
H           -0.61675745595156       59.20888445703302       35.00882292840727
C            0.82520416899225       58.30745626114071       36.33917882631279
H            1.64681010351689       58.49750790658430       35.63841170578479
H            0.47361766979860       57.28440887090127       36.17416453921383
C            1.33875087628441       58.45532094553860       37.77286270710938
H            2.18391786076202       57.77816020192886       37.93038581452432
H            0.54641562312545       58.17161944913229       38.47450253538537
C            1.77413056064220       59.89617646513845       38.05077282941577
H            2.09476700652836       59.99172974119186       39.09242495646971
H            2.62447088813682       60.15758849285970       37.40941134241427
C            0.62624544319324       60.86882795212777       37.76976056086430
H            0.96668391149038       61.89487276896086       37.93508238006999
H           -0.21435384064589       60.67990151225212       38.44487670234029
C            2.88693213749174       65.42371046829626       36.93114873237158
H            3.13589883858586       64.73880624297092       36.11449606595942
C            3.06884896330101       64.70746479842879       38.26455166986515
H            2.43370099043991       63.81742651000414       38.28563870258726
H            2.75036503257467       65.36727158776773       39.07771892997997
C            4.53244152109266       64.30060291549664       38.45661566076396
H            4.80309966411423       63.56030943857452       37.69665577537537
H            4.65587268200967       63.83159193713055       39.43735446599431
C            5.45910058352834       65.51339513746974       38.34382969611190
H            6.50046343759619       65.18757624488600       38.42780691347607
H            5.25614471750389       66.20603618706983       39.16804860683942
C            5.25317749173485       66.23577702861698       37.01061196436903
H            5.89188440303974       67.12289821475228       36.96627360154871
H            5.54027561263463       65.57435575140643       36.18528668302650
C            3.78941627717800       66.64785478923615       36.84327341952951
H            3.50846295316689       67.37172392947343       37.61480763412402
H            3.65232633115900       67.12763739497569       35.86997676342661
C            4.16237720577699       71.86529346239398       34.24173674642758
H            4.79381165911917       72.10427912188079       33.37953155689648
C            4.98897395417165       71.11270991952244       35.27992786036975
H            4.33626726304579       70.80090705720131       36.10234601801697
H            5.40460159237890       70.20755231901879       34.82788404209374
C            6.11874747287166       71.99203867466834       35.81967732740164
H            6.81340081462042       72.23457465324768       35.00807693469579
H            6.67492195494284       71.44221109397662       36.58467673050925
C            5.55583232592557       73.28382490181330       36.41681879177280
H            6.37671487753395       73.91628560320531       36.76835154239323
H            4.92347622524290       73.04315549015891       37.27831924885882
C            4.73106822883016       74.04130031954153       35.37375634414185
H            4.30311282798745       74.94246912420849       35.82315700564362
H            5.38017650514678       74.35357461420465       34.54828976191237
C            3.60474099759500       73.15728224018953       34.83262150474079
H            3.04416080791203       73.69615607453902       34.06392014477068
H            2.90821697042398       72.90973788055324       35.64076898805419
C            4.45921252192289       66.80274801749465       30.51959347382094
H            3.41964324366806       66.52436090267859       30.32758787108320
C            5.37280742390887       65.75149260056843       29.89900675297083
H            6.41774715369960       66.01223204866180       30.09579519828777
H            5.17707141837669       64.78315209925040       30.36710346817571
C            5.11998158076875       65.66426014397635       28.39105754480130
H            4.09564815243077       65.31472088090480       28.21720722542376
H            5.80192937173152       64.93248284810976       27.94702263554592
C            5.32303508384874       67.02653451359113       27.72453362434221
H            5.07561358759550       66.95391383295636       26.66101371794477
H            6.37641743327465       67.31864908425042       27.80439824993979
C            4.44740791846748       68.09452470133159       28.38290152342133
H            4.64640321262126       69.06932591752896       27.92740869717345
H            3.38810904876558       67.85907629592523       28.22572983480709
C            4.71541401231864       68.16576298691167       29.88834838863269
H            4.04625988351543       68.90448464677846       30.33786704871400
H            5.74539868723930       68.48064777181732       30.08289106063965
C           -1.54448646797136       72.24143501978432       32.94516204622622
H           -0.90797618327036       71.80193843585334       32.17257054212303
C           -0.66935231061959       72.97864312491410       33.95160424694745
H           -1.29567236498960       73.35726433268327       34.76552590880590
H            0.05256769242581       72.27857968180525       34.38155620622846
C            0.07480844068529       74.13322241165046       33.27968259592490
H            0.75625109442857       73.73330659831805       32.52088555298234
H            0.67468070638684       74.66481965279259       34.02455563780887
C           -0.91472806997867       75.10084661589420       32.62687831051345
H           -0.36784749748204       75.89911409435842       32.11569892878381
H           -1.53786591568546       75.56259988174033       33.40080652951347
C           -1.80600161689967       74.36444436547897       31.62425441177571
H           -2.53550215483766       75.05938977307034       31.19733641447347
H           -1.19002018808642       73.98016810910308       30.80375205241949
C           -2.53978961236286       73.20033405043067       32.29686306020066
H           -3.13240823351348       72.65809366594245       31.55493900344029
H           -3.22548165173926       73.58012722182897       33.06123207257600
C           -4.08351242812604       67.35445033550796       36.57604616669379
H           -4.82723684934425       66.65131467346495       36.18838781691357
C           -3.93363633527410       68.49901818159226       35.58477053428283
H           -3.14610528220106       69.17828712921471       35.92457443726754
H           -3.62609859507358       68.09857414423982       34.61563907839670
C           -5.24106617700603       69.27559852816735       35.43152880670407
H           -6.00761797967220       68.62542141442755       34.99626088367885
H           -5.07874329207946       70.11391367259695       34.74768961710017
C           -5.71648617466649       69.79651207522440       36.78836479715584
H           -6.67383536468494       70.31346255256859       36.67164918930115
H           -4.98972240451806       70.51925206440784       37.17549516603791
C           -5.87010141695597       68.64393960494402       37.78335122076747
H           -6.17588143935109       69.03480877879919       38.75863040026847
H           -6.65278010373709       67.96099706820695       37.43492480237153
C           -4.55339472749056       67.87623400521460       37.93112883538622
H           -4.68529381786509       67.03661187141869       38.61903975431905
H           -3.78508009188647       68.53376649534631       38.35026857003130
C           -0.78376258867411       71.30147899809272       37.54188733322827
H           -1.29443048986876       71.31359640455810       36.57307178832207
C           -0.05526727653778       72.62644911352469       37.75246203517799
H            0.64582965119661       72.78779092767606       36.92875587015546
H            0.52569176503591       72.57506670267642       38.67907463268129
C           -1.04778267086011       73.79038853198405       37.82039851792839
H           -1.55808819602793       73.89136683855776       36.85647267469643
H           -0.50574299969869       74.72161339194300       38.01086423317253
C           -2.08587459578087       73.55861249292069       38.92005633821869
H           -2.81045554815988       74.37869960028505       38.92051648032866
H           -1.59011922228425       73.54720479041146       39.89699844278294
C           -2.81007451038551       72.22924382548290       38.69850410405454
H           -3.52706205885860       72.05736476000193       39.50673372176704
H           -3.36782529287332       72.26787319380314       37.75630216279247
C           -1.80819457366336       71.07379075468806       38.64822044103563
H           -2.33820446605489       70.13690202419401       38.45925957694751
H           -1.29333329963635       70.97872854426366       39.60959177560714
C           -4.95956563376407       67.04709415835150       30.72491862794288
H           -4.88220138500173       66.03562783561594       30.31169258796407
C           -6.10143188710363       67.78053346242017       30.02606592227576
H           -6.17882255393992       68.79781177056944       30.42344597221869
H           -5.88886849982901       67.85380977902743       28.95597654129138
C           -7.41630941944666       67.02569466327473       30.24684493764096
H           -7.34621755746431       66.03465576825569       29.78458953620829
H           -8.23535209866476       67.56459088582947       29.76073886413895
C           -7.71372863058391       66.87367025814143       31.74108624434916
H           -8.62843237489910       66.28833741206030       31.87557410410621
H           -7.88068730791489       67.86312257977733       32.18123480693250
C           -6.55136469842276       66.18821859998882       32.46248036832538
H           -6.75347286834371       66.15133175002907       33.53726643815062
H           -6.44300440170282       65.15708531907750       32.10801665349640
C           -5.24714901248322       66.94705029564295       32.21706253033518
H           -4.42722539487664       66.43012164944695       32.71886482350786
H           -5.31306853920352       67.95443074385130       32.64128893918169
