248
 energy: -353.941088304828 gnorm: 0.000769138825 xtb: 6.5.1 (579679a)
Au          13.58087372899323        7.55913029537952        2.21912348478686
Au          11.82585822826696        5.70086790668919        3.79118369026489
Au          12.28208291237982        3.24297268695732        2.55056404868609
Au          14.66499658477899        4.57095950770731        2.30367485004630
Au          14.80202810312215        6.56755846485500        4.46469583603922
Au          15.14877394504710        9.18942844868364        3.61880075213554
Au          12.53106766649004        6.96167437005131        6.53942653811160
Au          13.54299381975409        3.87753907914982        4.96875365665160
Au          11.21467550771440        4.51291113316685        6.58610014612252
Au          13.64457299273200        4.69902104060944        7.74079700786844
Au          16.20514038158987        4.29410997748279        5.88773374868828
Au          15.72144645562853        6.74677931638383        7.10424034561886
Au          17.63302313505156        6.54433067755067        5.02206098871063
Au          11.21109653429259        8.38127084863107        4.19960889723974
Au          13.18454947143574        9.52207459144024        6.02258131985224
Au          17.38011731105753        4.86619789356765        8.65584026665152
Au          19.02593329110130        3.86942228469556        5.48201478891982
Au           9.86835203392024        3.32597170986004        4.44709457753295
Au          17.88401538321805        9.22678091251631        4.31831729501857
Au          12.90820428066099        4.62466995586527       -0.06274865493812
Au          14.60237585090973        1.67735043578684        1.48990217025022
Au          15.54599500110274        1.98975160507813        4.12213680581920
Au          17.51161224920768        4.28936508991728        3.00672965263061
C           10.16663904299524        7.07386664025585        3.02944585267381
C            9.38527994945768        6.63478050867113        2.20901890028657
C            8.44607666441268        6.07617050804774        1.23488766864483
C            8.69880343990796        6.71281838147446       -0.14049442767893
H            8.51104593984357        7.78552625503015       -0.10003676544825
H            8.03836439794419        6.27004350562875       -0.88637009323252
H            9.73259138899896        6.54794506905448       -0.44364650824346
C            8.67959237205890        4.55893431424311        1.14788021894593
H            9.70777379228573        4.35187879708310        0.84960756734088
H            8.00445021234712        4.11283487792375        0.41740046366478
H            8.50188705720169        4.09419049168831        2.11798278914440
C            7.00644376220265        6.35544727588563        1.69359395915115
H            6.82421642570748        5.88837665622464        2.66130742681915
H            6.29778601432002        5.95138510854272        0.97040327794928
H            6.84164267750508        7.42874965939743        1.78595501790639
C           11.58399511689903       10.28087937828793        5.01159806711270
C           10.91479481157112       11.28622852429727        4.83997987205343
C           10.07758565323071       12.46408932147419        4.62320266372573
C           10.17517046060430       12.89135951464622        3.14962169658205
H           11.20669149975291       13.13178760274920        2.89324059192773
H            9.55501318696349       13.77019250179123        2.97244642043933
H            9.83450261088520       12.08443851955464        2.50079542454336
C            8.62438215128859       12.09345794216058        4.96882523727352
H            8.28261610666165       11.27733614140066        4.33210589431392
H            7.97281896201960       12.95421441636833        4.81781292622223
H            8.55349814456858       11.77619215754831        6.00916735877701
C           10.55848492209064       13.60338952923764        5.53722749239996
H           10.51444518152315       13.29412629616798        6.58132023444923
H            9.92640903438756       14.48124494771634        5.40258635848340
H           11.58661726773604       13.87222563861495        5.29615181120486
C           14.72161898756779        9.20050705385620        7.23649632246094
C           15.69140387833324        9.29614633339759        7.96962651586637
C           16.82857955724013        9.61261027639051        8.83921724071694
C           16.80052957157944       11.12232284760931        9.13089100245903
H           16.89643604573736       11.68449807128042        8.20212940598333
H           17.62672054589180       11.39014334760765        9.78970330886103
H           15.86232736529085       11.39725846588269        9.61212281190664
C           16.71319460190801        8.82389504024684       10.15129288292181
H           15.78336789992842        9.07358889373244       10.66242856056422
H           17.55024179984976        9.06058327361576       10.80845761725823
H           16.71881967216365        7.75346572004321        9.94697826214383
C           18.13571690616206        9.25177358877641        8.12012055567352
H           18.17596886580064        8.17922642342125        7.92881942070875
H           18.99453818875226        9.53283842124553        8.72981713959917
H           18.19773178700987        9.77376546705738        7.16515139960938
C           16.56134050029643       10.75819042942675        4.43673203685593
C           15.96012724268453       11.79783665375318        4.64332366557280
C           15.26188309533307       13.06362055508778        4.86730389155453
C           16.28307895153547       14.21346597152768        4.85931267463622
H           17.01645712551156       14.06971902698485        5.65262721738007
H           15.77605026362339       15.16575056653876        5.01671818330519
H           16.80493411542309       14.24599411066067        3.90316409508297
C           14.53789927183470       13.01662827399056        6.22079125365346
H           13.82323360325464       12.19179505255050        6.23314951464876
H           13.99832672359176       13.94758477544970        6.39703659051722
H           15.25242231680294       12.86426357189929        7.02923085192236
C           14.24026642447050       13.26045631297217        3.73373244585306
H           14.74486090245037       13.27888542783628        2.76786825015979
H           13.70453438181065       14.20058824090991        3.86839769408522
H           13.52100988984358       12.44085659696262        3.73377428379570
C           19.31619568410058        7.79891343172908        4.15301496887120
C           20.37234440219470        7.28486973618192        3.83595580476047
C           21.65155276896677        6.68831637988229        3.45024836060089
C           22.18339569041488        5.84543662157114        4.62062124692000
H           22.31041444841794        6.46475455147495        5.50855547987982
H           23.14251843426355        5.39727053598217        4.36024492518471
H           21.47876006573402        5.04598097313422        4.85562667964608
C           21.43498128504424        5.79712579351996        2.21641550810893
H           20.72105668677202        5.00612267320573        2.44537312135146
H           22.37682730378102        5.34179610022570        1.90918913015550
H           21.04332453647816        6.38816334815583        1.38836974806325
C           22.64984968809702        7.81055965776035        3.11890683304914
H           22.27192833958480        8.41918809238288        2.29761828720020
H           23.60985459697336        7.38353799711992        2.82786078697194
H           22.79833152847633        8.45079752976674        3.98829387140644
C           19.16368590981252        4.51622998310954        7.37652680239726
C           19.65675785763793        4.88687291388893        8.44487522557449
C           20.55487034365969        5.26379581360752        9.54411860789907
C           20.25527542660116        6.70237588193976        9.98827365588128
H           20.39008650214555        7.38920797332966        9.15312425456398
H           20.92665915755817        6.99511067010918       10.79558235144604
H           19.22703907338027        6.78012645546604       10.34147910429847
C           20.35720470188947        4.29785131821927       10.72155531999288
H           19.33543328336312        4.36662209872864       11.09508239054541
H           21.04412814500925        4.54643595389596       11.53058248376361
H           20.54321425683362        3.27202524393889       10.40406854425173
C           21.99545010825932        5.16675854325480        9.01535969751663
H           22.21150947909504        4.14850894232372        8.69282436867023
H           22.69880924348849        5.44495330493356        9.80029256565487
H           22.13084738074521        5.83778898182535        8.16713262745324
C           19.10600265342570        3.00835302785104        3.64892576312033
C           19.61731212116988        2.23657268022511        2.85446587287843
C           20.20118402005680        1.32409258926021        1.87434942834841
C           20.81536898582117        0.11762771121598        2.60182523679965
H           21.60609114347288        0.44590872330566        3.27616782737688
H           21.23602920036638       -0.58073586215553        1.87829685170953
H           20.05274748406769       -0.39796807050376        3.18506621119037
C           19.07949796346331        0.85905265826651        0.92905205245788
H           18.28103697468053        0.38350177178461        1.49812609737049
H           19.47118166133377        0.14568793520671        0.20395571252701
H           18.66089493654372        1.71168331639398        0.39398641965543
C           21.28619785077889        2.06599637210181        1.07649692199349
H           20.85508155422942        2.92710938726690        0.56601163123951
H           21.72440253527961        1.40022130812647        0.33279215384712
H           22.07409239296397        2.41431796735830        1.74417529930573
C           15.62328357653194        5.12346304795052        9.56310319529334
C           14.63675175743565        5.46999115493595       10.19063077870145
C           13.56471097850825        5.89767226315909       11.09332764512597
C           14.19584598642393        6.23450130354879       12.45503959809968
H           14.69313475708051        5.35684946718286       12.86736493540432
H           13.42493758180126        6.56305201705691       13.15213207477472
H           14.93067252989570        7.03148504377851       12.34202529617880
C           12.88451685571644        7.14759092554059       10.51290334368115
H           13.61842561070499        7.93438750214047       10.33950779948766
H           12.12524455345304        7.51768240240914       11.20182157703082
H           12.40555674415391        6.90803228514935        9.56305869293674
C           12.53757266442215        4.76793599150558       11.25606476150494
H           12.08773730084594        4.52984333157106       10.29174352954352
H           11.74879509809192        5.07219734420214       11.94421370897364
H           13.01925140741100        3.87119552912740       11.64524265907391
C           16.55812129812482        5.49380705576703        1.62286752039591
C           16.81366538380573        6.33424658576121        0.78028611659071
C           17.12667249511806        7.32078769807856       -0.25127547984075
C           17.12575986419127        8.72592595707147        0.36809505659179
H           16.13986328208497        8.95899433553430        0.76955333136054
H           17.38172654939542        9.47168368595445       -0.38451065895544
H           17.85136346196322        8.78068813516690        1.17974562406289
C           18.51918944331553        7.00314163950667       -0.82259320807762
H           19.26993426692245        7.06195955187811       -0.03434389957722
H           18.77391431879194        7.71871409088608       -1.60439491238315
H           18.53444772661058        5.99854212160089       -1.24476055191105
C           16.06758785633766        7.22626398901372       -1.36166774288249
H           16.07178353693498        6.22985942112732       -1.80358806026514
H           16.27511419994875        7.95927215423189       -2.14124756436219
H           15.07686928938731        7.41861598474094       -0.95117192280992
C           12.56664620803826        6.58495061699368        0.03530749162263
C           12.37175387717626        7.78477907274876       -0.08103319481995
C           12.04890239440180        9.17891183261193       -0.41071275011166
C           11.35498254256633        9.19622993889553       -1.78306639681363
H           12.00868397314728        8.76423935757425       -2.54065029680017
H           11.11581806489295       10.22123855592238       -2.06708601576630
H           10.43227961406196        8.61786178407429       -1.74819269045411
C           11.11603488581597        9.76913641677145        0.65621463897880
H           10.22344399472071        9.15532550369320        0.76793174113787
H           10.81704893776435       10.78025466146879        0.37857190877767
H           11.62871576735352        9.81019241939204        1.61756571294940
C           13.34044409328367       10.00786121938828       -0.47553521335573
H           13.84542072212257        9.99043022492977        0.49035468882727
H           13.11009886125271       11.04264841927185       -0.73016154610991
H           14.01575992692698        9.60313414760768       -1.22878347660371
C           13.52956677321057        2.48618602174011       -0.02171607462730
C           12.82189840098679        2.55805759851469       -1.03039470913371
C           12.04819491552705        2.33370317618189       -2.25802160977269
C           12.29909236176225        0.89101887074753       -2.72475193818824
H           13.35904576381369        0.73918037771276       -2.92712547434870
H           11.73417294696741        0.69264628220220       -3.63568888867536
H           11.98573904201532        0.18439619815325       -1.95708358348443
C           10.55717725866595        2.53964223459644       -1.94894886545562
H           10.23807165210405        1.86286760023904       -1.15642984985516
H            9.95803455768363        2.34755254345919       -2.83897839267118
H           10.38131550356866        3.56439129190491       -1.62133717793277
C           12.49882152675432        3.32005019987120       -3.34518252899573
H           12.32119792831877        4.34470048629020       -3.01896163304986
H           11.94205262403326        3.14414902268082       -4.26566390518668
H           13.56264630052145        3.19898313081893       -3.54786830049834
C           15.66709807764754        0.39097287212013        2.65054650647991
C           16.10950778639430       -0.71139297010911        2.92145063118476
C           16.63304014396210       -2.02319454397387        3.30262118557281
C           17.52207080348389       -1.84447748103799        4.54602428976674
H           18.34092423871244       -1.15843790219216        4.32984669763273
H           17.93840200325512       -2.80476285814988        4.85062317244758
H           16.93784900643909       -1.43605313615412        5.37093635495614
C           15.45219972952677       -2.94950038892275        3.63888069521626
H           14.85452004117776       -2.52078997253429        4.44323108009198
H           15.82083148162888       -3.92493548813859        3.95691445273549
H           14.81662837862242       -3.08321347598313        2.76368326742630
C           17.45316375080252       -2.61924096463120        2.14785618398308
H           16.83599528022369       -2.70959581229475        1.25417575462648
H           17.82130974382137       -3.60783383194796        2.42298927038051
H           18.30602660533208       -1.98054331315381        1.91979120421632
C           15.70759138291576        2.12623222372125        6.19720374055637
C           15.55886021722776        1.56650485091525        7.26709911775913
C           15.42815785822728        0.86870392961581        8.54466003102242
C           14.23645401081586        1.45958687457504        9.31472430835392
H           14.40670958364684        2.51868316393716        9.50920059709768
H           14.10957163305864        0.94666472991571       10.26820171425978
H           13.32122282097693        1.35442168978373        8.73274759995554
C           16.72403485041589        1.05282158406534        9.34996733174668
H           17.57308387815144        0.64918744161947        8.79880880694377
H           16.64748090568911        0.54015919361051       10.30882458474262
H           16.90264634286354        2.11304385681059        9.53400326951911
C           15.18653029374397       -0.62478412038996        8.26662279227630
H           14.27415875346471       -0.75611177137077        7.68522030144172
H           15.08767043646627       -1.16861416041830        9.20607312130566
H           16.02159151505156       -1.04266618570794        7.70412214941095
C           10.52127774250408        1.83774913059404        3.24044518282314
C           10.74438392334805        0.72713931048438        2.79092381309330
C           10.96096793704346       -0.63344338561981        2.29903310610183
C            9.68732404823558       -1.45885290167083        2.55011598685681
H            9.45854526562695       -1.48291565907756        3.61535744996843
H            9.82902317562666       -2.48063834194753        2.19732495302835
H            8.84275842705315       -1.01751257527428        2.02131058122838
C           11.26789355904866       -0.59243558302898        0.79413132526027
H           10.44414429045271       -0.12626553949467        0.25343697688153
H           11.41464145132795       -1.60252667626117        0.41111985813695
H           12.17407281250764       -0.01400673049800        0.61372029694046
C           12.14549067166895       -1.25247525578606        3.05868556021527
H           13.04961821526654       -0.66970761369033        2.88185852455241
H           12.31588808303840       -2.27476417213586        2.72019060223502
H           11.94528239231400       -1.26410947400112        4.12995333561435
C            9.13358087487000        4.76229483482672        5.66492414607253
C            8.52510705693331        5.73819539332209        6.06449428369785
C            7.77710241587370        6.89974581032176        6.54728450219375
C            8.73525682862309        7.80962557368773        7.33517415590162
H            9.17360130956447        7.26691647183971        8.17274001387780
H            8.20124152509040        8.67964113980187        7.71795418823670
H            9.54070302618874        8.15489940244625        6.68602465655757
C            7.21046884654082        7.66898141696606        5.34306332362227
H            8.01808907181032        7.96843620601434        4.67506989388453
H            6.68432339163227        8.56205551223125        5.68111845020147
H            6.51487285718282        7.04009779238440        4.78792824181399
C            6.63410828193264        6.42925056937087        7.46094803471612
H            5.95951838199661        5.77332261824770        6.91113666027451
H            6.06977532312897        7.28705162061334        7.82742554106617
H            7.03534406231604        5.88155932838536        8.31352829425895
