422
 energy: -668.077724490244 gnorm: 0.000467427898 xtb: 6.5.1 (579679a)
Au          13.38627604112440       11.85251094453532        7.19779780078943
Au          13.83112558978318       14.33956084731001        8.42147886043018
Au          12.75400548228889       11.77467017954694        9.99322213851293
Au          17.59097475795590       11.93937662148189        7.23183876325189
Au          12.74674988403256       14.30262117063682        5.83655713827304
Au          15.53581161540094       10.06544304312105        6.14651882837724
Au          15.46883980828139       11.89088643687174        9.33371656249647
Au          17.12629760063802        9.45237190849996        8.43543255123006
Au          18.16599981036173       11.98890759543451       10.04731406127114
Au          12.84371055360952        9.44225771065610        5.73500666386730
Au          15.46182162308082       13.73625673533133        6.16234500974356
Au          17.02735387182133       14.21270549898961        8.77491464014136
Au          18.25778350021620        9.50087282148739        5.87204918022440
Au          13.91673607674180       11.69014064613150        4.44867324784598
Au          13.92891445409501        9.56824132863638        8.72974868763210
Au          18.16285505614245       14.35809318606446        5.79761320892477
Au          17.10336140739993       12.12702401581752        4.47591558180337
Au          14.68739344679047       13.39772423409100       11.68769325573150
Au          16.21637123750994       10.26622628981246       11.64128417288234
Au          16.13259663997604       16.55697144473185        6.34831967659811
Au          14.72857564583769       14.92798749814707        3.60415530950002
Au          16.31632766216066        8.85430165620360        3.61930757376583
Au          14.85970332677291        7.24110919894973        6.34702535617444
C           16.85963288059140        8.60790783860880       10.69931959084557
C           17.05517683313717        7.47374708360478       10.28034836743682
C           17.19792253462491        6.13060676114312        9.84156392783350
C           17.14816147365516        5.07273400232445       10.75583549593239
H           17.04900438112587        5.28648119308879       11.81369015999310
C           17.21402653054164        3.76316836900088       10.30793805102494
H           17.17117506017221        2.94929434225646       11.02268761111740
C           17.32772672978637        3.48797330059423        8.95104247477031
H           17.37269363415516        2.46156770734004        8.60629836355452
C           17.39195129258091        4.53283815786817        8.03666024556932
H           17.47997289882711        4.32559398523804        6.97553178764682
C           17.33454093008227        5.84322333602022        8.47833346159396
H           17.40009655959129        6.66061231577037        7.76904664102242
C           15.44070456578813       11.80729506437703       12.79628194837720
C           15.42034094728516       11.80849519940170       14.02815600755467
C           15.39950838627579       11.81109316343619       15.43918312904659
C           14.76250086179951       10.77758420181109       16.13944759851617
H           14.29337980960005        9.97115625888573       15.58696675705062
C           14.75016934348336       10.78381920638368       17.52379478966340
H           14.26056009150788        9.98008898461108       18.06158781334048
C           15.36051606621286       11.81781759811560       18.22405834454911
H           15.34542232791916       11.82038588072649       19.30748777568223
C           15.99021948476211       12.84859764847561       17.53620569043363
H           16.46460246872473       13.65497297593228       18.08361061564254
C           16.01647095542483       12.84828675378491       16.15207892807590
H           16.50037256411459       13.65235417086318       15.60900817706557
C           14.06983600358874       15.07473892462676       10.76711029376946
C           13.87967809632342       16.21578033077624       10.36490340916408
C           13.74277085433076       17.57417054264176        9.97244586045617
C           13.74453174753946       18.59291283650656       10.93160672839360
H           13.80215107209618       18.33557846877057       11.98290136987346
C           13.68672961865306       19.91970048875752       10.53673514934313
H           13.69303185266001       20.70285069925856       11.28622174864311
C           13.62945578734943       20.25118988115793        9.18890272974612
H           13.59388100209271       21.29098331025688        8.88563957698116
C           13.61258823343172       19.24546462455384        8.22972173198904
H           13.56925332050478       19.49667462290935        7.17536688827068
C           13.66161714320263       17.91813074336999        8.61836565729891
H           13.63664896457506       17.13103040163617        7.87317523625793
C           16.70876998985432       16.60283291334238        8.27445792263854
C           16.86207516056454       16.81855287084443        9.47025708254371
C           16.95375853342976       17.14187075031374       10.85045428569210
C           17.05757874414014       16.12953338407592       11.81116303179737
H           17.13540125276499       15.09802266567275       11.48648091638468
C           17.06215455188577       16.43597793664772       13.16073691441407
H           17.12366430276882       15.63887417668301       13.89384193540257
C           16.97736177398271       17.76084683308913       13.57240101243392
H           16.97829244064511       18.00190474018990       14.62895103767718
C           16.89703119532065       18.77473678005855       12.62616255934703
H           16.83770692774219       19.80887746640429       12.94573051594638
C           16.88357105269215       18.47362508594934       11.27381834729924
H           16.80799929419412       19.26443382491010       10.53650777270663
C           15.40315113553572       16.71842708930355        4.40476885910776
C           15.38238093122097       17.80320572779010        3.82101775540897
C           15.35859573675996       19.04654042301751        3.15394502391977
C           14.68091816373242       20.13666692729180        3.71686864954527
H           14.18284756809888       20.01737595416054        4.67257764520566
C           14.66565117633677       21.35609598599494        3.06169092212805
H           14.14464365494125       22.19801395789510        3.50290542291635
C           15.31365370835716       21.50216202990073        1.84065489190862
H           15.29656089567100       22.45763033453395        1.32992946716609
C           15.98313548501307       20.42394958232105        1.27377751629562
H           16.48654391130782       20.53895902830494        0.32074941744612
C           16.01246802074915       19.20209632105949        1.92403710673311
H           16.52776425990696       18.35524448070272        1.48488817128804
C           14.17792872182129       13.26793493160430        2.60938680360209
C           14.03756483618155       12.33845606608503        1.82427519180024
C           13.95889959300083       11.29352415016519        0.86563616641512
C           13.86549895345659        9.95957206842029        1.27950837576259
H           13.78402032985837        9.73824332771156        2.33774962628214
C           13.87136129126576        8.93198382972934        0.35244277370448
H           13.81646601280450        7.90236662873701        0.68944793886704
C           13.95665585496309        9.22080689799280       -1.00447178731208
H           13.96185630229810        8.41690335320559       -1.73117865624265
C           14.02752749120844       10.54242971540439       -1.42647985863103
H           14.08679460988799       10.76937025360996       -2.48481824842028
C           14.03006126616382       11.57536049940362       -0.50293998733160
H           14.09631486822666       12.60570987354851       -0.83246049538056
C           16.89080374416709       10.51425993728370        2.63944200724424
C           17.05198353992593       11.44911094156304        1.86470197518085
C           17.15381044611005       12.49248176885520        0.90619716303033
C           17.23386275952334       13.82803839950391        1.31708900279794
H           17.28786421670493       14.05358128290197        2.37616504861735
C           17.24921332461685       14.85244333273155        0.38656401717836
H           17.29260418966112       15.88333653502935        0.72116919405528
C           17.19962178378288       14.55837536946599       -0.97102818173617
H           17.21113074969536       15.35955672941707       -1.70065278448855
C           17.14294207463897       13.23502534682787       -1.38979657474796
H           17.11169452468884       13.00402680839682       -2.44845476357233
C           17.11872846715463       12.20550176770726       -0.46279183544391
H           17.06319902346093       11.17379623825890       -0.79009512411353
C           15.60537850351768        7.07023364273387        4.41556098223430
C           15.62663510280353        6.00949477888544        3.78914395061316
C           15.65150907690154        4.79461362403702        3.07158147799374
C           15.01340213017992        4.69548499219605        1.82762472478223
H           14.50829612619381        5.56327428843583        1.41837724652443
C           15.04541768344317        3.50272037742862        1.12562770964485
H           14.55473194788269        3.43181723675150        0.16171305838989
C           15.70172946669684        2.39738628307677        1.65441512614277
H           15.72138711127766        1.46483444037628        1.10304051057005
C           16.33266216471979        2.48683242004688        2.88975135463056
H           16.84278537889311        1.62362329026295        3.30153346057217
C           16.31470310789162        3.67703735037077        3.59657315321219
H           16.79967128137318        3.75211456303222        4.56342332998616
C           14.24795888328114        7.18846816990734        8.26288116062628
C           14.07268696392874        6.96919576121883        9.45505483511128
C           13.95661113411618        6.65191614965857       10.83464925012782
C           14.04619800433146        5.32502029837530       11.26930126829954
H           14.15535021388014        4.53112973131286       10.53962456554049
C           14.00669400178281        5.03266963288020       12.62313296362712
H           14.08027749946556        4.00219222373201       12.95146280326740
C           13.88041476913790        6.05067726223532       13.55990995988469
H           13.85632601284198        5.81635921999798       14.61768352736700
C           13.77662270588689        7.37053866336312       13.13673990656610
H           13.67852415366765        8.17084881533743       13.86237498438395
C           13.80715617230151        7.66825530853526       11.78545797493357
H           13.70999888721478        8.69518092844210       11.45169572128377
C           20.12272545269066        9.03587434128167        4.87938506386047
N           20.48935693293461        7.90015627741002        4.26827420071709
N           21.14879652243300        9.89103316131222        4.74596405514005
C           21.74567683092834        8.02437229685320        3.70568160980206
C           22.53718738973555        7.15455741147499        2.96441099666790
H           22.20505936857912        6.15543805830602        2.71365441719161
C           23.77047591259419        7.63266449920688        2.55549431875655
H           24.42121113734345        6.99120888837652        1.97302569833494
C           24.20116963915769        8.92701594152041        2.87054871032309
H           25.17433305996387        9.25452031816923        2.52425247644940
C           23.41583321441048        9.79723880412027        3.60737878340655
H           23.74728488148728       10.80013295285128        3.84400053536709
C           22.17708629614919        9.32076962574015        4.02010147153744
C           19.62691580477084        6.75156653970228        4.08067635050428
H           18.81758093466988        6.82728282931070        4.81527555009514
H           20.19580318483010        5.83963578681565        4.28627692893694
C           19.05183304087632        6.72945653083033        2.68090531077487
C           18.67566423320839        5.52079947100796        2.10596821961196
H           18.84097519000864        4.59209109564511        2.64155729497530
C           18.07393184721326        5.49604353052717        0.85645088740788
H           17.78034541590918        4.54479983155114        0.42648667135566
C           17.82699159422968        6.67636285914089        0.16071519308844
C           18.23569327325265        7.88174861892365        0.72428091180248
H           18.07082127820900        8.81341284311998        0.19414321567628
C           18.84732746587202        7.90859165295148        1.96889458303127
H           19.17580438129874        8.85580820152931        2.37812784318184
C           17.14916329440676        6.65404496022150       -1.17987409056462
H           16.53758335367269        5.75886734742593       -1.29138847043087
H           16.51640058514160        7.53354374491080       -1.30446031020345
H           17.89621962579695        6.65904285920434       -1.97633151660265
C           21.16276495390646       11.25556568330266        5.23285683905932
H           22.05683680005938       11.40780311602472        5.84685899453219
H           20.28135634619565       11.37706827517489        5.87166531819365
C           21.12381380373519       12.24702296589062        4.09491848738012
C           21.84519406493128       13.43257366138747        4.17980555253585
H           22.46613509992175       13.62717351205966        5.04745278694473
C           21.77519959955798       14.37244296583279        3.16200657360907
H           22.33127347166361       15.29916292654902        3.25388834346114
C           21.00545475757742       14.13149511407506        2.02839441963415
C           20.31808833269524       12.92374890575676        1.93020809604933
H           19.73890998697971       12.70561446475304        1.04123858310744
C           20.36133406111464       11.99659564435824        2.95806848189522
H           19.81159153086055       11.06689005951928        2.86827813104846
C           20.92968440039593       15.13934234579586        0.91710173427654
H           19.91647321536167       15.19136536850610        0.51658149783190
H           21.22352897424049       16.12897807063776        1.26694864110892
H           21.59840562769611       14.84975230995816        0.10400197947629
C           10.88709555879611       12.35190267851081       10.92123885110360
N           10.53810350176895       12.29646977265767       12.21459312115433
N            9.84127029731833       12.87830989375559       10.26462765958697
C            9.27300933982882       12.81820881363388       12.40847193410750
C            8.49208716819341       13.00071940084840       13.54398063959176
H            8.84288389640651       12.71819595112217       14.52812835922778
C            7.24421855993821       13.56973128908495       13.35465846747477
H            6.60088473147231       13.73383933520602       14.21103378181546
C            6.78933588403267       13.94427853142838       12.08465186084877
H            5.80547974586662       14.38848743684170       11.99014614742839
C            7.56404627260881       13.76569069790581       10.95112230871280
H            7.21378010855548       14.06244218099488        9.97086419273899
C            8.81735324379811       13.19429530554999       11.13704878700051
C           11.42131964011089       11.89156101327054       13.28900539387895
H           12.23912824612339       11.31676951251086       12.84051925207439
H           10.87420656714277       11.23679309711933       13.97421626854165
C           11.97676406448304       13.09690007897967       14.01633896517678
C           12.15114889351461       14.31367409237867       13.36193628918225
H           11.81313875258875       14.43590326617062       12.34044954399415
C           12.74491583429806       15.38413285014019       14.01397367329260
H           12.88665042061447       16.31771812420458       13.48049109524119
C           13.16538812008480       15.26500419090917       15.33559596555427
C           12.94837476220592       14.06074780012768       15.99953707854745
H           13.25138143491462       13.95332678321245       17.03518272613570
C           12.36460141249178       12.98505358792482       15.34673236142604
H           12.22257246057905       12.04826990172108       15.87488915809698
C           13.82382701415446       16.42217922583610       16.03179058601202
H           14.44017873064593       16.07704501001437       16.86170046240560
H           14.44832898140606       16.98362177474358       15.33590467475486
H           13.06517229992552       17.10024071263426       16.42819142268441
C            9.80260800246261       13.14624394122452        8.84136130545550
H            8.90920635217917       12.67930576423960        8.41318726471445
H           10.68509439232951       12.66938573379768        8.40131663703886
C            9.81570083928318       14.62918363482351        8.55831517930630
C           10.57303888298049       15.49679854933324        9.33937586399413
H           11.13568082029611       15.11519943926077       10.18342977404957
C           10.59431292992404       16.85196133563142        9.05416045987278
H           11.16965533824868       17.51888957151168        9.68448903611816
C            9.89035149111599       17.36423488148415        7.96679192505618
C            9.12497646648422       16.49461139734174        7.19618359520673
H            8.55581590511551       16.87306495225423        6.35398367413900
C            9.07657461423949       15.14162900610653        7.49795751789324
H            8.45884330863580       14.48078441754709        6.89971830125495
C            9.94270550102422       18.83218187466388        7.65227163975955
H            9.67056505010068       19.01825778618537        6.61324475878405
H            9.24500695226973       19.37618411803403        8.29223389314286
H           10.94314164497689       19.22712557022766        7.83300102242413
C           11.02209240366060        8.27604831906310        5.78563823213406
N            9.96616236526835        8.54567196105364        6.56944979312441
N           10.71468740741038        7.16669849871513        5.09816857115376
C            9.46765820249862        6.69139624980494        5.45778435554803
C            8.72861037118034        5.58454702391521        5.05626808215707
H            9.10576620840211        4.88296304446942        4.32349417384641
C            7.48721229071867        5.41928030029661        5.64652353855923
H            6.87606679896145        4.56930970500424        5.36681171994137
C            6.99847100704325        6.31964847700317        6.60076724434674
H            6.02143335233663        6.14398761090752        7.03523966584107
C            7.73147116351918        7.42259221233859        7.00471524772069
H            7.35522507396694        8.11378219726979        7.74791365137794
C            8.97817410773666        7.59215087179555        6.41409545003338
C            9.88751366367386        9.64480592302928        7.51019852054077
H            8.97409839712346       10.21735842093931        7.31692386759463
H           10.74847496702854       10.29394147347439        7.31765924074559
C            9.91428500550115        9.15087326180316        8.93665762951049
C           10.71877419371543        8.07585276214688        9.30224854548137
H           11.31059304824273        7.56269336257054        8.55324198806223
C           10.75086810028988        7.64553230599086       10.61821234184036
H           11.36420348909099        6.79330679287122       10.88427114891291
C           10.00882592910716        8.29702869531054       11.60085724197645
C            9.19679824581185        9.36359196028004       11.22834477971996
H            8.59808302764659        9.87624251889194       11.97345476473871
C            9.13917432854639        9.77789252135432        9.90575763508909
H            8.48582918461677       10.59812778837734        9.62892721821718
C           10.07208767226186        7.83623500304257       13.02921511722229
H           11.09041691497937        7.54871049612370       13.29374285141605
H            9.73805624351350        8.62132134162540       13.70762888612052
H            9.42911389521308        6.96493295285658       13.16934325516043
C           11.62664060431516        6.46436453875740        4.21875560907035
H           12.41796373142767        7.16844427906407        3.93865722349881
H           11.09158889699177        6.16718131174878        3.31161060862694
C           12.22884110701124        5.26213577790126        4.91342193653823
C           12.40284517561261        5.24303840627955        6.29498973576263
H           12.03099896795935        6.05906615104309        6.90195815038940
C           13.03896720026479        4.17455316909517        6.90916527454155
H           13.17899241215168        4.18745979127693        7.98454883227765
C           13.50370579949126        3.09870114117120        6.15782623283405
C           13.28789015922603        3.10167897929325        4.78259713705797
H           13.62553373608722        2.26466123856343        4.18150445546637
C           12.66094690849265        4.17363226116783        4.16438020351710
H           12.51983370466617        4.16663344766370        3.08887508624046
C           14.20804443716088        1.95262244282808        6.82679370151691
H           14.82866243379075        1.40834368635252        6.11528717923934
H           14.83644189736347        2.31295593142738        7.64221621735314
H           13.47701975873158        1.25773256554118        7.24528299886916
C           10.90188718246627       14.76491540922673        4.80574483784270
N            9.87789779673889       13.91038630208196        4.65307181938496
N           10.54923100693242       15.89936419991027        4.18408357498189
C            8.86562647095657       14.47975450162766        3.90431526271322
C            7.63551289411414       14.00317651624807        3.46666174356722
H            7.29816566266990       13.00123247052503        3.69893722349441
C            6.86687089766415       14.87200500073646        2.71084754006079
H            5.90100990750814       14.54436948781450        2.34479935302597
C            7.30542183013826       16.16507894201719        2.40140827113092
H            6.66788026646820       16.80544153834748        1.80335956080899
C            8.53015291075008       16.64324532859820        2.83518166074462
H            8.86851052909909       17.64133709743814        2.58871196681239
C            9.30482913193768       15.77482607473722        3.59560366529974
C            9.85288817487042       12.54591803062240        5.13982797765689
H            8.94602259158647       12.39418463367805        5.73486618263742
H           10.72071715394889       12.42372251969727        5.79683377907075
C            9.91513518356618       11.55510940551369        4.00229100197421
C            9.18541765844421       10.37338675487265        4.06673435828102
H            8.54077439421166       10.18108649532800        4.91744548610761
C            9.27739999311386        9.43410164085209        3.05014433097257
H            8.71438434274727        8.51016329104766        3.12635370661538
C           10.07838340535156        9.67178109152349        1.93762887525931
C           10.77372612643900       10.87628220621147        1.85848895907448
H           11.37706720274506       11.09240389842805        0.98526791755850
C           10.70782409678672       11.80286088222472        2.88568735340414
H           11.26334014072213       12.73039406019260        2.81065663253723
C           10.17834084849297        8.66386378413378        0.82828870812177
H            9.51715891598256        8.94627961923058        0.00651358836165
H           11.19699020344183        8.62086680697342        0.44085502984338
H            9.88910607687556        7.67184430617782        1.17532865903726
C           11.41734150205524       17.04558918152177        4.00875398552300
H           12.21222687493479       16.97141907327967        4.75911752004975
H           10.84639529802877       17.95945231433849        4.19951644560093
C           12.01997412758637       17.06084533183509        2.62050605047780
C           12.23109361612300       15.87899273652067        1.91490403085857
H           11.88780912734663       14.93473027756975        2.31877540270936
C           12.86843073860878       15.89937483023820        0.68313316205832
H           13.03739523612726       14.96569473551055        0.15788500144287
C           13.29809613789918       17.10079640706992        0.12660993614285
C           13.04553121566488       18.28396804325952        0.81533612415431
H           13.35582807717856       19.23231540287816        0.39076186450710
C           12.41670136963988       18.26574527525443        2.05161461274700
H           12.24660999406156       19.19647709376853        2.58217969819731
C           14.00432881720878       17.11498832045669       -1.19935217620280
H           14.64656835136583       16.23933917739005       -1.30086859737427
H           13.27462424980424       17.09509471409853       -2.01149241771956
H           14.61109148885799       18.01379429155692       -1.30745262654900
C           20.01566232554011       11.39401327251814       10.99889996021740
N           20.33873977042012       11.42691767638034       12.29981729348669
N           21.07668956378269       10.88416865347338       10.35364461360974
C           21.60206252063946       10.90677335669390       12.50918161954549
C           22.36109017919051       10.70616955496837       13.65642524156932
H           21.98968210184304       10.96881202065465       14.63851366109863
C           23.61500276731314       10.14592895031736       13.48146514695581
H           24.24191958879466        9.96846304793455       14.34729964513213
C           24.09672210766193        9.79713226194853       12.21402710385997
H           25.08425192422117        9.35884528601465       12.13087123694581
C           23.34387311705257        9.99377227850391       11.06883100141461
H           23.71487361270822        9.71693406926511       10.09037999934284
C           22.08456413048524       10.55641693610660       11.24037368205545
C           19.42947081544853       11.80014028958335       13.36384732395521
H           18.61973978289862       12.38381095460628       12.91212519652514
H           19.95788935086245       12.43809159417247       14.07887964037856
C           18.86180602604971       10.57376740479691       14.04543810800906
C           18.43154558972310       10.65232212309861       15.36513896222675
H           18.55017405460438       11.57758669309553       15.91875627151753
C           17.83482642575774        9.55834027369409       15.97436788655870
H           17.49782078021886        9.64026826775919       17.00181193288988
C           17.64800579016130        8.36806135196618       15.27690195374777
C           18.11098454512178        8.28190178087909       13.96700828429356
H           17.99335596035492        7.35987163821173       13.40825110026635
C           18.71667356187955        9.37125587197831       13.35839016220084
H           19.08716118550962        9.27446348302228       12.34549567018359
C           16.97663457508122        7.19092076221357       15.92549590285337
H           16.32647207352543        7.51338188905457       16.73856189459867
H           16.38421103449640        6.63750164639999       15.19596305884759
H           17.72719876376484        6.51250978411804       16.33643662891114
C           21.14356728488238       10.63655275713455        8.92756933172669
H           22.03951481137862       11.11827158698746        8.52172856681276
H           20.26399789039428       11.10995508126146        8.47818047188370
C           21.15187380105105        9.15710373405056        8.62644958084806
C           20.37497646291484        8.27547499733914        9.37197664452968
H           19.78075288857485        8.64423481898995       10.19990838119023
C           20.37362566832520        6.92344579498391        9.07235514305304
H           19.78139857244071        6.24564346931568        9.67494765469423
C           21.11978657371825        6.42775255745793        8.00541314698889
C           21.90487565266455        7.31097721080059        7.27120716567124
H           22.50655764117704        6.94547904122080        6.44608004757515
C           21.93163138516251        8.66136391615738        7.58761509853887
H           22.56433578051263        9.33297517545812        7.01759399704921
C           21.08857314595905        4.96273990336673        7.67482464127954
H           21.43867286003587        4.78439688516320        6.65810405192937
H           21.73297985975341        4.41079027423895        8.36202574442836
H           20.07593828993972        4.56988944739322        7.77500651897610
C           19.98467446848329       15.52166078069255        5.88361724866130
N           20.30726102367545       16.63132327250543        5.20371724777670
N           21.02438899130427       15.24955096269898        6.68793766803841
C           21.54766268012591       17.10426416633992        5.58844823287569
C           22.29647794067182       18.21012385297388        5.20257664236276
H           21.93513892444631       18.91298209455059        4.46308380952688
C           23.52627609255738       18.37264480281663        5.81737329959762
H           24.14437955866734       19.22170578855942        5.55047607946900
C           23.99446117699710       17.47063671919584        6.78034192332228
H           24.96303106343309       17.64420249955342        7.23418635721684
C           23.25168628294339       16.36865523311642        7.16875636418653
H           23.61193943428593       15.67615689664179        7.91863444286772
C           22.01664499633821       16.20177416398692        6.55338992885819
C           21.08348966520064       14.14729449664091        7.62630971931805
H           22.00270751303156       13.57780863104705        7.45237358528397
H           20.22911040111378       13.49660444731416        7.41082542137953
C           21.02115409504110       14.63453384768746        9.05398994862379
C           20.21480916597683       15.71341624033058        9.40378355447217
H           19.64792515707131       16.23580321703958        8.64197886952850
C           20.14975374627539       16.13610438653079       10.72104287953229
H           19.53611216881452       16.99170409502119       10.97522763812663
C           20.85874025344478       15.47266888641335       11.71996467901861
C           21.67240260213410       14.40188385045174       11.36356295090312
H           22.24585749148210       13.87965713016713       12.12178577986578
C           21.76413089323156       13.99571446701747       10.04039871686003
H           22.41925505917635       13.17267023785961        9.77660906826109
C           20.75878451524085       15.92532581240175       13.14879349343138
H           21.07624386141752       15.13681190485771       13.83112466892877
H           21.39673999434321       16.79665677796464       13.31000473597224
H           19.73365444103205       16.21031382110932       13.38877540182647
C           19.41577975471752       17.33325005464541        4.30317092643127
H           19.97127212524099       17.62784030841981        3.40752695244169
H           18.63011585698237       16.62945431938636        4.00696319182726
C           18.79989915757715       18.53781496713708        4.98154425107869
C           18.39009107803301       19.62707171700552        4.22096809060672
H           18.55745907109826       19.63251905915793        3.14922881485030
C           17.75244545949808       20.70198297575117        4.82258855466461
H           17.43334219564390       21.54000837017078        4.21281603924810
C           17.50193173766399       20.70671361526620        6.19206068886960
C           17.94417622272688       19.63008626309932        6.95553759129338
H           17.77730723835246       19.61846166921709        8.02711522983956
C           18.59220536498252       18.55903482578909        6.35832561989320
H           18.94639536882791       17.74240848025215        6.97499267460713
C           16.78438542237548       21.85641734451763        6.84059810979752
H           16.16344454598198       21.50529511659972        7.66554460416829
H           17.50755060185690       22.56996547063646        7.24103521160887
H           16.15443400384702       22.37746833607155        6.11982251208450
