406
 energy: -653.222173774244 gnorm: 0.000044310143 xtb: 6.5.1 (579679a)
Au          23.36441181210691       17.56895966315246        4.19727735476139
Au          22.30289169748474       15.19155622001638        5.55518386023402
Au          21.98751507720168       15.80374026027946        8.39283592422258
Au          20.06203277763905       18.13672471683930        8.74809499217647
Au          20.09191840995875       20.11691855037930        6.65572645971834
Au          22.17253741115621       19.86627731932779        8.48864372091633
Au          22.74248312473891       20.16728158161303        5.17636393409176
Au          21.93403830964087       17.86459037705729        6.47807457239070
Au          20.09532241060767       21.58223799457437        4.32985775424728
Au          20.73355400971372       18.61587011460425        3.86783950534856
Au          20.08653994595117       15.69105918486035        3.70769582496557
Au          19.80421978502816       15.80820384480901        6.76042468862944
Au          19.35825320964647       15.64643136727842        9.70080233966193
Au          17.43187966031597       17.79822157851877        9.78130927973675
Au          18.21750547144985       20.50492161089361        9.03491112129491
Au          18.05964584983354       21.83734152819808        6.37217178224775
Au          18.00588546154116       19.71188225775854        4.36027638126461
Au          18.78656272347482       17.79569976089570        2.22785196801230
Au          17.89675898705585       16.99262063610293        4.89860122234132
Au          18.04898422484987       14.25279476717203        5.33789728635997
Au          17.16928874120416       15.84366751069460        7.55704113756530
Au          17.32037396045674       18.85705170621323        7.11620877252418
Au          15.59576904315364       18.50523011184587        4.93046258319267
Cl          22.79769055791866       22.59825761757873        4.61002501692866
P           23.75336665182075       21.58189954716312        9.00598616549393
P           18.67723827585062       21.85928781113664       10.98273789396486
P           24.14856236537821       15.68321217791075        9.44146518996250
P           19.24663234156277       13.31251770039758       10.37587659608493
P           13.22913837921674       18.40937836199517        5.26212409457726
P           16.31421337741642       23.46165941669146        6.41916465571602
P           20.24391135075086       22.91033556601545        2.32751310059661
P           17.73432444024302       17.58759824743036        0.09454880010815
P           16.86821460757788       12.48350099725809        4.27960942689923
P           24.74787128528272       17.01797424569196        2.34508895298399
N           16.59294211147186       17.43426492393794       11.98159604954232
N           15.71635608197540       16.20229214734361       10.32728960490245
N           15.18777863797059       15.07273626147576        8.42751667411499
N           21.37675661566136       14.16996223898459        2.50099588217955
N           22.66537570023261       13.40422093425808        4.25754064078694
N           22.96558651472510       11.10048937905445        4.49952202141693
C           15.80561441895966       16.38774824629031       11.66129566692907
C           15.29255080584798       15.55835248424808       12.67449946792822
H           14.73590755972593       14.66653318073280       12.42173568279971
C           15.56098103557606       15.86197320511102       13.99063737646534
H           15.18217047698341       15.22693239085045       14.78368858255722
C           16.33663517253897       16.98054604204553       14.29595588214696
H           16.55947695343690       17.24602735965169       15.32097617740098
C           16.84581288733210       17.72666855619694       13.25115471140607
H           17.48805168752059       18.58285089731168       13.43224520949865
C           14.83291121261423       15.43730764469977        9.68082055606777
C           13.55497465718183       15.06849249287305       10.16710337914159
H           13.22592607252776       15.43717976782496       11.12886121865374
C           12.72713307717093       14.28934270523026        9.39886526880173
H           11.74449337737348       14.01040439765225        9.76187716600926
C           13.15881246195207       13.86505139954019        8.13752511206222
H           12.54320491768110       13.23021925567952        7.51428465899467
C           14.38904345493850       14.29805436835657        7.69576842511159
H           14.76878990634738       14.01243907193273        6.72114069178180
C           22.31575258539552       13.31719159886805        2.96185291194321
C           22.95113909335359       12.43297341560653        2.05563071557825
H           23.72685388986291       11.77606167502899        2.42356006921997
C           22.60805958719382       12.43451975137685        0.72954274362369
H           23.10506286196020       11.77017489090735        0.03205443987659
C           21.61259110576045       13.31202387805185        0.28607948496676
H           21.30319584203556       13.34129776667866       -0.75032059317646
C           21.03614788251113       14.15135886624468        1.20804189444242
H           20.26143251419536       14.84975525315137        0.91608498641247
C           23.26699923390112       12.34814798763598        4.89305995273493
C           24.11482630618350       12.58380403741631        5.98420882153682
H           24.32852884856782       13.60554168354377        6.27567995257079
C           24.67493072549694       11.51568476065793        6.65223311269046
H           25.34914047168297       11.67828670422678        7.48598798849292
C           24.36056718538513       10.22614144182813        6.23278405315685
H           24.77643564083494        9.36053892783199        6.73214786172620
C           23.50084686284264       10.07664788931640        5.15673177745144
H           23.22195048372431        9.08770548686004        4.80370352212647
C           23.21503531652588       23.14271248156984        8.24233438472860
C           21.87948782936698       23.25502234664124        7.85422247584213
H           21.19259437510058       22.44376930549928        8.06651443886389
C           21.42181391391802       24.38042405675733        7.18973278747576
H           20.38617074180656       24.43294618625275        6.87175452266502
C           22.29208203939090       25.42784968355029        6.92645008787620
H           21.93703811235096       26.30965117218965        6.40613519520065
C           23.61932630815884       25.33959502418023        7.32510357255987
H           24.30267685437197       26.15515787312795        7.11868647829226
C           24.08271673464042       24.20460773182715        7.97157691677546
H           25.12666095802855       24.13750666884662        8.25581304153418
C           25.40030096411529       21.28008067989374        8.30971033610526
C           25.63893907939880       21.52845345834155        6.95428212468960
H           24.88502719650652       22.02475084144983        6.35471196939431
C           26.83943295230092       21.15187228141604        6.37334329980758
H           27.01414585060825       21.35432057675928        5.32276355964289
C           27.81432963508498       20.51629568741822        7.13232786210326
H           28.75170686432853       20.22082290583542        6.67558665014647
C           27.58227344389174       20.25589341432320        8.47642622467041
H           28.33767051213762       19.75622655078028        9.07222921584920
C           26.38175250933663       20.62830067138725        9.06094871308592
H           26.20331982412965       20.41438050753538       10.10932139998325
C           24.01747442573949       21.95695833658863       10.76681443417103
C           24.94461682835584       22.90216445659762       11.21309328897765
H           25.56457032355701       23.43062793435915       10.49797160815649
C           25.07644932342689       23.16703162380455       12.56703892400593
H           25.79867160500146       23.90207545233770       12.90277991041618
C           24.28778626004426       22.49474770437025       13.49264374123620
H           24.39281303345086       22.70608844459669       14.55027374440348
C           23.36639451049012       21.55066242647213       13.06037986038098
H           22.74931857201958       21.02073177129751       13.77743312046317
C           23.23431910346291       21.28390683623805       11.70555075753405
H           22.51512426082172       20.54444275510843       11.36840551102027
C           19.74195399695213       23.33384518525769       10.93140726094159
C           19.50234623987462       24.28536730633565        9.93505198024135
H           18.69490979957262       24.12949352803835        9.22691178659759
C           20.29259358808602       25.42003550311809        9.84290107704519
H           20.08679077633996       26.15661104678799        9.07540085596004
C           21.35349091241658       25.60611173275108       10.71876448498817
H           21.97886218922744       26.48700090997374       10.63420640000652
C           21.61276169565848       24.65717545920598       11.69703013447690
H           22.44333930435781       24.79134740862180       12.38080504948861
C           20.80916817204932       23.53292195553948       11.80850092588500
H           21.01552110580257       22.80503803383504       12.58393034373639
C           19.31693251035549       20.86741552385166       12.37149018952200
C           19.95327635050129       19.65441375735759       12.11120905224581
H           20.09505985569142       19.33566084996596       11.08539179255275
C           20.38735850779253       18.83972790852066       13.14466238221438
H           20.84322820997984       17.88270677634499       12.91865475633294
C           20.21702267105337       19.24328337822845       14.46190249292397
H           20.55406845005805       18.60850743596739       15.27289236835083
C           19.60294939806246       20.45884412783572       14.73654171225469
H           19.46679247819023       20.77765645303618       15.76339394230412
C           19.14687590288591       21.26150981807850       13.70271150512769
H           18.64587041720161       22.19635040315777       13.92736240194178
C           17.08846715077577       22.44944001722708       11.64676115803162
C           16.16421790361843       21.47324433578418       12.03636490888035
H           16.43561199374294       20.42448074991644       11.97860483699840
C           14.91063252274597       21.83429048988400       12.50161342449396
H           14.21272735203321       21.06769424581281       12.81827783602088
C           14.55213363761175       23.17595530934292       12.56361252271720
H           13.56988492361349       23.45926767380843       12.92290699141363
C           15.45484597923629       24.15025814698821       12.16290169649817
H           15.18017952495994       25.19792107779339       12.20849635726910
C           16.71652524419223       23.79245206607525       11.70942253328543
H           17.41527107814586       24.56510337549992       11.40971487307009
C           25.32397900653681       16.07782371698398        8.10697045650870
C           25.23785260072365       17.34683963375739        7.52476943387956
H           24.56488120296745       18.08519016564835        7.94887316131851
C           26.00276538412694       17.67442452020410        6.41781787406270
H           25.92368052615916       18.66310370718268        5.98096943158509
C           26.88001453571113       16.74017357134026        5.88018623693559
H           27.47939989967517       16.99574170958021        5.01387566048025
C           26.98457203230533       15.48210169982358        6.45692595527626
H           27.67199954286066       14.75191538125421        6.04578700070376
C           26.20648651783321       15.14776477487593        7.55716061887168
H           26.29261825573979       14.16033335476145        7.99552204741466
C           24.64840827397481       14.04809177484626       10.05309809736742
C           23.89594108190847       12.94708853510236        9.63670535349275
H           23.04965542675145       13.09848430146179        8.97478970793544
C           24.22094187231870       11.66858382711219       10.06045893572364
H           23.62800907382886       10.82429929974530        9.72829686948872
C           25.29768107613020       11.47614026093883       10.91594010120413
H           25.55146659305673       10.47766556127483       11.25195051530093
C           26.04445445275384       12.56512508029799       11.34643876866613
H           26.88159921570800       12.41717215930487       12.01872260210930
C           25.72461825717414       13.84484476944318       10.92027925100788
H           26.31050641804045       14.69044635065578       11.26270742986284
C           24.61536159917944       16.86756444120228       10.74390573256657
C           25.90020042831685       17.40733410518420       10.84464002603213
H           26.66176913666045       17.12820869347184       10.12560059059218
C           26.20615299871335       18.30572649366371       11.85588661979099
H           27.20829062787884       18.71217104094065       11.92810096756651
C           25.23674441472800       18.67480696695691       12.77830762533839
H           25.47633032468183       19.37764235345311       13.56762407359726
C           23.95615928427355       18.14692367079161       12.68408101460019
H           23.19741217626911       18.43380540572931       13.40281170899574
C           23.64486945297015       17.25531413872416       11.67004659838534
H           22.63971809884815       16.85417662690859       11.59012555567823
C           20.63154591950193       12.88273711865819       11.47488454535704
C           21.36570633564165       13.91601250060500       12.05911622244249
H           21.08470113171005       14.94523538508945       11.86152699907113
C           22.44561700536452       13.64084597407375       12.88321206187556
H           23.00917675498314       14.45532314282930       13.32420968244413
C           22.80364239746301       12.32427557641769       13.13647691176601
H           23.64996718829633       12.10543310462088       13.77697569440609
C           22.08052037204917       11.28661089165799       12.56149613752860
H           22.36039199458908       10.25782120686921       12.75639452323488
C           21.00381350988570       11.56040380998235       11.73324071152671
H           20.44945022857480       10.74573785259790       11.28065821946444
C           19.42495497629708       12.12831337102585        8.99653044988626
C           20.26274102311971       12.47216229132733        7.93357301282153
H           20.80608215682454       13.40901811267699        7.96775469205923
C           20.41782860273023       11.63647968545148        6.84057544728086
H           21.06530771615771       11.92990738238623        6.02387848183862
C           19.74660192871552       10.42210823781599        6.79949773455634
H           19.86762677607501        9.76478669920728        5.94659026748224
C           18.92358632241375       10.05590693572916        7.85535726521689
H           18.40143147486644        9.10623692571822        7.83374534755163
C           18.75807955340312       10.90160907060364        8.94392727576942
H           18.10427138857691       10.60386622082650        9.75526477793226
C           17.75006786722706       12.73961372416215       11.23176861963076
C           17.72552626973424       12.43099744815141       12.59260560006254
H           18.63801349441402       12.48176759939172       13.17560048429064
C           16.53919025169282       12.05010303697896       13.20194038648404
H           16.53293176489509       11.80767723979120       14.25833918755458
C           15.36584285252292       11.97621305440607       12.46424378376537
H           14.44191542205746       11.67112798725729       12.94127491366321
C           15.37636402381665       12.30088479379210       11.11283998715158
H           14.45986973645942       12.25791355293832       10.53558315611260
C           16.55667615033737       12.69121571504152       10.50269634324664
H           16.55852414376522       12.96128899934186        9.45205548803516
C           12.82094476523168       18.21443987576088        7.02512626539009
C           13.73182586760971       18.69167388707094        7.96916560560213
H           14.64411902069049       19.17329472780783        7.63496814548813
C           13.48993373145516       18.55557724280930        9.32569314605910
H           14.22450791322414       18.90573148721510       10.04139810049594
C           12.31464440499275       17.95994707125626        9.76112214221979
H           12.11714391547358       17.85960675180484       10.82182337678821
C           11.39737090064935       17.48356386222781        8.83352982953959
H           10.48283175829086       17.00878676306962        9.16971487607960
C           11.64972705455552       17.59850684377712        7.47539339642248
H           10.93747072960728       17.20109069874778        6.76135002070413
C           12.40905473234809       16.99777923665010        4.46675877458083
C           12.73516904132262       15.72023862101750        4.93374571732137
H           13.37756499636329       15.62146532284309        5.80172535228343
C           12.24165042727162       14.59010198660660        4.30487751161496
H           12.50141594009165       13.60710558308117        4.68214146178529
C           11.42587739044076       14.71852410173129        3.18761864036758
H           11.04496739408273       13.83506409007506        2.68889796919431
C           11.10316098785860       15.98117026136499        2.70988903215593
H           10.46705467311977       16.08569206318442        1.83840612147015
C           11.59177213574652       17.11577579731633        3.34181482830311
H           11.33055728945384       18.09723971187228        2.96266234642867
C           12.29751762785291       19.87737305529275        4.72696128064908
C           10.94423215302698       20.06336553468454        5.02133864044157
H           10.40841645987446       19.31576684877465        5.59517276866435
C           10.28366918031884       21.20199939326961        4.58715220131349
H            9.23403640683094       21.33622224553308        4.82127856343175
C           10.96119363321381       22.16641274585136        3.85125830592466
H           10.44064340296276       23.05344423109196        3.51000818738589
C           12.30657748598354       21.99368985634631        3.55714881088831
H           12.84164089918777       22.74279379245623        2.98460200229765
C           12.97086822693932       20.85898430127408        3.99766716900406
H           14.02700626436055       20.73220809626029        3.78302774514711
C           14.79647732157957       22.91103471630433        7.25394183318035
C           14.91525325819071       22.31492174314349        8.51309401016725
H           15.89366491993342       22.22271351863522        8.97352327197082
C           13.79737906281815       21.83836947826792        9.17619212551263
H           13.90541036518751       21.39099923579088       10.15709012532472
C           12.54456501975117       21.92853440260858        8.58392930861510
H           11.67223128070848       21.54332572610626        9.09866876066100
C           12.41635249526060       22.50685072790754        7.32958837771794
H           11.44200266361403       22.57675597164044        6.85943418957850
C           13.53223754326725       22.99823255908176        6.66878918613978
H           13.41844840474952       23.45001057513894        5.69023360988001
C           15.75927190802114       24.00659838862364        4.77522977642425
C           15.80932446207597       23.09629150707117        3.71775233132533
H           16.18670877788764       22.09361691020561        3.89176357376281
C           15.38471006726854       23.46312709578038        2.45035412158347
H           15.42219364627581       22.74432705720315        1.64063680046321
C           14.92661271552913       24.75302575207150        2.21560457580174
H           14.60713370335149       25.04183359186013        1.22125740753901
C           14.88297048011366       25.67002504315345        3.25697007935005
H           14.52718161098474       26.67817320380705        3.07932065341573
C           15.28935145698876       25.29976341682611        4.52943116484813
H           15.24645758185804       26.02043135262110        5.33778508940089
C           16.79595017714191       25.01102375983741        7.23663868809008
C           17.81603927287968       25.75655062867787        6.63390587082941
H           18.24433413042842       25.41834148449693        5.69575679104213
C           18.26752761989172       26.92981471976094        7.21426977894223
H           19.04686886182278       27.50497548210307        6.72730489118902
C           17.72058008297768       27.36615771062547        8.41558467025860
H           18.07141098728577       28.28538260535478        8.86948462111948
C           16.72489754358673       26.62140674384653        9.03225029064744
H           16.29848699101117       26.95624908265998        9.97088780257504
C           16.26344072707655       25.44954810485527        8.44956973937721
H           15.48067263008839       24.87983584914824        8.93741910956962
C           18.95373176523625       22.73191614872398        1.04210363012071
C           18.01436055580960       21.70732814637127        1.12975381701950
H           18.03630931952457       21.03087021958649        1.97814406863025
C           17.04791253185550       21.54255798879627        0.14781951803603
H           16.32754288898810       20.73648683270026        0.22859298758010
C           17.01264517841256       22.40083964344230       -0.94179902137543
H           16.26145280850449       22.26947865049004       -1.71175824708350
C           17.94617190302713       23.42435758767050       -1.04372238835960
H           17.92425031491613       24.09606487957137       -1.89400753724427
C           18.90981992275567       23.58850778792954       -0.06245368187631
H           19.63650096910454       24.38831935996224       -0.15110250989199
C           21.75713356233059       22.69074034660118        1.34229788651505
C           22.25797297708945       21.39164270172272        1.22526413961727
H           21.76259755302113       20.57651054912748        1.74419904641401
C           23.38374397029562       21.13633634899406        0.46042810429110
H           23.75831005789976       20.12345788129005        0.37283130630982
C           24.03252776466000       22.17776492533848       -0.19012510935436
H           24.91876505776059       21.97876171545084       -0.78147882416172
C           23.54403071976046       23.47173188326496       -0.07904409295092
H           24.04700409178279       24.28781288685408       -0.58484559651195
C           22.40988072039843       23.72910014544696        0.67684881131922
H           22.03530722837923       24.74338300085334        0.75181013637573
C           20.14515850434206       24.66380784624317        2.77728830831802
C           21.26294751727776       25.34086804063826        3.27250338505650
H           22.22384342811339       24.84089618090830        3.30781210428406
C           21.14546586486303       26.64411028649408        3.73034097057410
H           22.02467897622531       27.16882893519969        4.08611881502555
C           19.90978451865521       27.27760338279166        3.73366012313428
H           19.82070237755666       28.29560704156343        4.09490595963608
C           18.78629926068414       26.60138366065818        3.27468817384985
H           17.81616244155412       27.08586205042488        3.28102224819599
C           18.90200924940756       25.30431397080467        2.79971560168679
H           18.02030967021608       24.78459661634270        2.44015427782332
C           15.92108737635379       17.76149289927228        0.04237922899695
C           15.29808000809188       18.48638808135891        1.06127129453487
H           15.89790220270767       18.91223147939504        1.85888881460363
C           13.92210951127429       18.65304921766385        1.07139466850312
H           13.45383265792071       19.22163786426404        1.86685223650895
C           13.14764577653818       18.08981507613176        0.06606057011665
H           12.07150227183560       18.21734632331571        0.07455433798292
C           13.75434061306200       17.35629734270697       -0.94485945770711
H           13.15257251565889       16.91115209385652       -1.72867669847184
C           15.13149334666938       17.19013812486649       -0.95790494125626
H           15.59531015461683       16.60397014417442       -1.74307747320661
C           18.03029663534864       15.96964888944666       -0.68216469661366
C           17.81788187508419       14.84194432964876        0.11814813176084
H           17.45649015567369       14.96977716693124        1.13351426799641
C           18.06959773613260       13.57101365355036       -0.37152961394516
H           17.90321530961729       12.70755370673819        0.26233620993068
C           18.54843762928963       13.40827864961165       -1.66548431064440
H           18.75002922828593       12.41475429655810       -2.04809613103220
C           18.77384804013158       14.52108827554607       -2.46378685656199
H           19.15314042876747       14.39852337542289       -3.47166177535145
C           18.51997992243103       15.79546541827700       -1.97734337464623
H           18.70407735242198       16.65744328637747       -2.60823836235911
C           18.36737757800613       18.81218174165511       -1.09155079705494
C           17.73240765048564       19.12944109115698       -2.29516909160241
H           16.79942727595851       18.64495652190713       -2.55990011242011
C           18.28349477281859       20.07243874572670       -3.14942278112935
H           17.78134235739472       20.31109247702057       -4.07978627440184
C           19.47144264237878       20.71081699968278       -2.81706952161876
H           19.89724688545655       21.44806482421738       -3.48746286698236
C           20.10692843185889       20.40965264355073       -1.62043609968431
H           21.02983340939058       20.90884589959014       -1.34767184274999
C           19.55453423231627       19.47181358933977       -0.76368631470214
H           20.04483886886510       19.24908428512940        0.17807774173948
C           15.88968755960035       13.12567264087352        2.88525241715963
C           15.41486623419539       14.43613725843855        2.98549063319082
H           15.64586070075898       15.02226826230297        3.86887641403183
C           14.64854316766662       14.99286993884221        1.97502050610399
H           14.28654936791320       16.01015538545457        2.07213040268791
C           14.34631828228846       14.24547164416540        0.84440141297690
H           13.74762472113900       14.68051696000960        0.05261783190581
C           14.81733253415357       12.94492659669212        0.72909048287088
H           14.58679927558364       12.36068854360231       -0.15419056409961
C           15.58554238764247       12.38617850789315        1.74071393124279
H           15.95124059619446       11.37055004317875        1.64090366346935
C           15.62275362603514       11.67022809861763        5.32804023953714
C           14.34401187118006       11.32401515609511        4.88690161166294
H           14.05463928540182       11.51472715344496        3.85978717654506
C           13.43890270922003       10.73571386125188        5.75827188160297
H           12.44859486889719       10.47271974046191        5.40476637500947
C           13.79803975674394       10.48138081364268        7.07505801385034
H           13.08849237593130       10.02084359393550        7.75231505971388
C           15.06789792283748       10.82122497958929        7.52324463350379
H           15.35424184604380       10.62658824982296        8.55050316903756
C           15.96933299908779       11.41985993287340        6.65878300471260
H           16.95472718618328       11.70050663520089        7.01446431350068
C           17.89592405256048       11.13697644841573        3.63371264125273
C           17.41223122321033        9.84778607370268        3.39297650173540
H           16.36521625184979        9.62192959288481        3.56208771841786
C           18.27284832363486        8.85276538418171        2.95558435635586
H           17.88893637222212        7.85608628133151        2.77066461037265
C           19.62245123451507        9.12460716573520        2.77018514398939
H           20.29322265426729        8.33825324326472        2.44430444158312
C           20.11368281919969       10.40003415899333        3.01335422965506
H           21.16999150699330       10.61650264242419        2.89713626559373
C           19.25456634129471       11.39987207244566        3.43769033051513
H           19.64075348980246       12.39415479171071        3.63374517036688
C           25.42196178856479       15.33735380258667        2.20145842645904
C           25.61849040496887       14.60410113112947        3.37348451240183
H           25.35952408589831       15.04667493375598        4.32883339841507
C           26.13278649264505       13.31880707182285        3.32465841365709
H           26.28069916175284       12.76337057850172        4.24353708907397
C           26.44076783187820       12.74171558563379        2.10005468454977
H           26.83562546354529       11.73342570369399        2.05935328920793
C           26.23502684138277       13.45621340438717        0.92697812565727
H           26.46768444296657       13.00601911318198       -0.03114460132145
C           25.73019166134936       14.74618510713246        0.97330876738083
H           25.57108894784412       15.29555025284823        0.05235829402904
C           26.17790932810378       18.13653132757663        2.33739706791742
C           27.50143300414588       17.70219965011552        2.25079993593519
H           27.71682098566948       16.64877125672274        2.11282484007032
C           28.54295744456395       18.61524118791479        2.33679508593567
H           29.56712578664950       18.26697514574424        2.26870309741126
C           28.27768497116848       19.96660118479365        2.50821551997139
H           29.09428160797537       20.67589452560324        2.57464485987767
C           26.96346125539542       20.40903602006134        2.59882121631516
H           26.74882718268981       21.46324417988105        2.73068507043362
C           25.92273362250026       19.49934973417468        2.52454707688175
H           24.89806783395649       19.84478854715482        2.61368373660922
C           23.92453536915433       17.30497476829092        0.74847286858138
C           24.57369017722329       17.83369214279261       -0.36990212467702
H           25.62073941986327       18.10728303633117       -0.30786217436663
C           23.88182468738600       18.01253021819797       -1.55981507450398
H           24.39423389534430       18.42674034955217       -2.42039716906881
C           22.54187425344307       17.66094099968468       -1.65114601930491
H           22.00443109054929       17.80101917132110       -2.58194685923740
C           21.88989146705421       17.13243256682562       -0.54504515403480
H           20.84538331147720       16.84829067928356       -0.61128226655505
C           22.57452248894492       16.96585552881957        0.64699141630610
H           22.06278476289098       16.56333655647902        1.51292736155581
