440
 energy: -624.648376893693 gnorm: 0.000565332583 xtb: 6.5.1 (579679a)
Au          20.01756115211567       20.58397555997897       10.86451718016765
Au          17.99272205924906       18.74707242887725       12.33932055973743
Au          16.86721252346362       15.80311591973388       10.22285897012086
Au          16.24958434125684       18.74678889763023        9.92697026768943
Au          17.88628302044814       20.64562350438589        8.79656397717164
Au          18.81695890696184       18.11287617591936        9.21240263822910
Au          21.30748537503742       19.10903423671725        7.53913990292119
Au          18.79576988972896       17.63637054866021        6.06230261969015
Au          19.76120056446981       14.96880681831958        7.09747818177261
Au          17.31522895105389       13.64925990331222        8.52042494503745
Au          16.87132532644986       16.18232844588452        7.40945555973370
Au          16.40296000587806       18.95794273867808        7.02080820699641
Au          16.55294329691118       21.89779625104471        6.30876639456813
Au          13.50965697989089       17.66166334954229        8.21965905717593
Au          14.76413046331772       14.91663113163340        8.62531690000614
Au          16.57414862739834       10.95003688811606        7.49882498395436
Au          14.50916961650816       12.39656928291114        5.87386656188080
Au          11.77575899905541       13.48484322081771        6.77718247951168
Au          14.08751145399792       14.99530825913689        5.49622719877668
Au          16.63036104391336       14.09862271895005        5.19732985525620
Au          14.09548764800916       19.25250825082744        5.21721086005886
Au          16.31703083174257       17.24323951478206        4.80017059750621
Au          15.66501788936013       14.54519779251291        2.36350492878971
Au          12.78584508827270       12.65603437808701        3.44284175807867
S           18.15311231871086       21.10365436395271       12.23904742403277
C           18.84608018923445       21.62700238595603       13.82884021534827
C           19.94089271102587       20.68939345374682       14.33385658454080
H           20.75621804414359       20.64620352963173       13.60539393460397
H           19.54011093783475       19.67690394845981       14.44216231302836
C           20.46588258340393       21.19195374184963       15.68364842288898
H           21.24972990321030       20.51212609901008       16.03929535203002
C           21.04648930944069       22.60031306679238       15.51245020399743
H           21.43612337762932       22.96194686653983       16.46883109215933
H           21.87497549753655       22.57721416535041       14.79751539308409
C           19.94656742534996       23.54020361607908       15.00636553503578
H           20.35625100045326       24.54943056656482       14.87663170780466
C           18.79435729699437       23.58025221541377       16.01713948888106
H           18.01268344415125       24.26013934839258       15.66383655408737
H           19.15622874589325       23.95410953362090       16.97979576638479
C           18.22043794169057       22.16876281858493       16.18817334782446
H           17.39371851772044       22.19385693711617       16.90866109708723
C           17.69632414094561       21.66108853352663       14.83824091259461
H           17.27784855940121       20.65623913984983       14.95018070815718
H           16.90177722180841       22.31608489620240       14.46875540744668
C           19.42282883181060       23.03316032882167       13.65677946685594
H           18.64634736298884       23.70513767212776       13.28160171511052
H           20.23261621078804       23.01050411929455       12.92110672648944
C           19.31596212851642       21.22463286718195       16.69711782144297
H           18.90816315944575       20.21752178214049       16.82978618411785
H           19.68459316999325       21.56965830608211       17.66788243215539
S           21.95569293730068       20.09526954496479        9.61901657739513
C           22.63790522599264       21.70635209356574        9.15384018061609
C           23.90668241215853       21.45784119244041        8.33624011927856
H           23.65304384245043       20.89831398265862        7.43097076923737
H           24.60953341359809       20.85453804263404        8.91770169196609
C           24.54305795177358       22.80186896741628        7.95954999725165
H           25.45227484258286       22.61767247229235        7.37422573804247
C           23.55284244497810       23.62171620533483        7.12408388204248
H           24.00621400644341       24.57475149303320        6.83482513365951
H           23.29829292752394       23.07794303491677        6.20841950494026
C           22.28510693970604       23.87133381735370        7.94825549429173
H           21.56611963325888       24.44982097184080        7.35466549304178
C           22.63923579683153       24.64352269111097        9.22410178014042
H           21.73249566352201       24.83440384799027        9.80736290977775
H           23.08212100173246       25.61036618101778        8.96593500583379
C           23.62988045652547       23.81871247836102       10.05396696495757
H           23.88349351836850       24.36407481418130       10.97148352497731
C           22.99185962779022       22.47430692474764       10.42851775767920
H           23.68128308181066       21.88361160922963       11.03840557776618
H           22.08454065516842       22.64298362295389       11.01763177332695
C           21.65431283949117       22.52773936493825        8.32558479043657
H           20.73613745831050       22.69245220823181        8.89468393039116
H           21.38219581299352       21.97818536281526        7.42036874958593
C           24.90294763712475       23.57133657948013        9.23601988912615
H           25.62066407865261       22.99530112612790        9.82840974948292
H           25.36986797443939       24.52646641067409        8.97655956850988
S           18.27579219878390       22.77886022285384        7.66276955743369
C           17.51188571623143       24.01293284814879        8.74252902680199
C           18.45453239794754       24.24245222784699        9.92603700598085
H           19.44108713026360       24.53955944846777        9.56010669864319
H           18.56916507357177       23.31115334451167       10.48727547502674
C           17.88336175166304       25.33396040591199       10.83757342569639
H           18.56623547609758       25.49106384107103       11.68160810992780
C           17.74376478638253       26.63769127538386       10.04401448597896
H           17.34725340068159       27.42757547462872       10.68927798613104
H           18.72544306260630       26.95880626571083        9.68201985215492
C           16.79829683012179       26.40917057280330        8.85908385329590
H           16.69765690538071       27.33843632153901        8.28501973046471
C           15.42413026095793       25.97583907293509        9.37980650730551
H           14.73845157892990       25.82403458812806        8.53994760822406
H           15.00237622693778       26.75614055244030       10.02060720269049
C           15.57110369117206       24.67288946139513       10.17252967822041
H           14.58582432747956       24.36010358288597       10.53717222007477
C           16.14480514101341       23.57800707614379        9.26632908658091
H           16.24573975100099       22.64287981183856        9.82618207992916
H           15.46750975332295       23.39052846178873        8.42709951963315
C           17.36524308244619       25.31291935718126        7.94736625708519
H           16.69580828927683       25.14849481875553        7.09732199647853
H           18.34022946706787       25.61352926080643        7.55342576893077
C           16.51329587056041       24.88935138858684       11.36123186249637
H           16.61637553580645       23.95675042708198       11.92648510469871
H           16.10207575486366       25.64865921533999       12.03316242350768
S           17.83577075137528       16.39656067708485       12.38935016692560
C           16.60526234346231       16.00061341654232       13.65170817473572
C           15.35797249279694       16.87434269739783       13.54566884009737
H           14.88820663599321       16.74201748260595       12.56598755449911
H           15.63830835063765       17.92821474585680       13.63826920556899
C           14.37106562313075       16.49805573244787       14.65630155940212
H           13.47963518722881       17.13272204254358       14.57375058615987
C           13.97006472593709       15.02794478324148       14.49991448905762
H           13.25370746388763       14.74854968183141       15.27847623091005
H           13.48683634190589       14.88252549769078       13.52988947626430
C           15.22161815313416       14.14846726034380       14.60035011956856
H           14.94137403710162       13.09427901234850       14.48153606812174
C           15.88268507406196       14.35228585937732       15.96838603922167
H           16.77104305325501       13.71826711153642       16.05102657660789
H           15.18838762950708       14.06526611348797       16.76403973356776
C           16.27688610848769       15.82585184392713       16.12542892865390
H           16.75467011044715       15.97525464615877       17.10151547590010
C           17.26462013110649       16.21167486191368       15.01696303421477
H           17.55806482169422       17.26068872565861       15.12295608226998
H           18.16996275320054       15.60176033362355       15.08616756041355
C           16.21108633482754       14.53215656840044       13.49334150476781
H           17.10321074362287       13.90185869063415       13.54754146265131
H           15.75300489319503       14.38002627498614       12.51098832590283
C           15.02918382201261       16.71118326177366       16.02400371542736
H           15.30814230187734       17.76297743636161       16.14382363549830
H           14.32415496489452       16.45632952924566       16.82118034554393
S           13.95553365605189       18.01437063317302       10.49272838779710
C           13.08739581733876       19.53883441913977       10.92129436100822
C           11.58139183480440       19.27761314724442       10.85681848565425
H           11.32616731620811       18.43164576081129       11.50102219543547
H           11.30065972018277       19.01485124144173        9.83194613685600
C           10.82614761982785       20.53566746663730       11.30402441088503
H            9.74718771464584       20.34395667831975       11.25708572076292
C           11.22252898809846       20.88768080580632       12.74257378452629
H           10.67701441748093       21.77725714656452       13.07198432037761
H           10.96033298678743       20.06361611522025       13.41331698114918
C           12.73179662066238       21.14884759007188       12.80273611698626
H           13.02146432793542       21.39650119075097       13.83127557118623
C           13.09467137877398       22.31188103594100       11.87377829256422
H           14.17227587120579       22.49667900544581       11.92239134243663
H           12.58011722891224       23.22332283338845       12.19244129294031
C           12.69044976317745       21.95738647358597       10.43823748364973
H           12.95041349850722       22.78646921117168        9.76833537735581
C           13.44213834746585       20.69865980247433        9.99383006120367
H           13.17829207233028       20.44336564751002        8.96266843339010
H           14.52115516289168       20.87723227618012       10.02314803285011
C           13.48775031767889       19.89222539798188       12.35550898080955
H           14.56700973773793       20.06600470826226       12.40201785921373
H           13.25192732024066       19.05562693077358       13.01913549003012
C           11.18093385107058       21.69977609067912       10.37198039836946
H           10.89014270739305       21.45490193817965        9.34521864933845
H           10.63542595757940       22.59979252516385       10.67126005993242
S           20.65094767538531       16.55690706172582        8.60665713139785
C           21.37978412885725       15.85376280358898       10.10888986699069
C           22.77077740852392       15.31519065352516        9.76876749564205
H           23.38199801809068       16.11378663339600        9.33911786465220
H           22.68661880863039       14.51692754066598        9.02562090116517
C           23.42630122559707       14.77703529898985       11.04948468125107
H           24.42326145685867       14.39036756106071       10.80496282429699
C           23.55332720034897       15.90543911014116       12.07971143652659
H           24.03488992664005       15.52802416107054       12.98697845917046
H           24.17576310837769       16.71066654152721       11.67715139050872
C           22.15768724867158       16.44464595832927       12.41355768699402
H           22.24155612649060       17.26108623958948       13.14163415256217
C           21.28611091188763       15.32497000161378       12.99013678827734
H           20.28685218427815       15.71119576361903       13.22045637513956
H           21.72564426463049       14.94350048433908       13.91677972715341
C           21.17416267383886       14.19738132159526       11.96008751124133
H           20.54988270865312       13.39578050621832       12.37196752968816
C           20.52291721198935       14.72862938391298       10.67817498250984
H           20.42597243894074       13.92543341914464        9.94177594707456
H           19.51978116141036       15.10122629320788       10.89880209134438
C           21.50653364897768       16.97889136467670       11.13490972931989
H           20.51278180757071       17.37401492142482       11.36609439231104
H           22.10297054933387       17.79714347177235       10.72093491793830
C           22.56690148202720       13.64899911375660       11.63151181539685
H           22.48533795938764       12.83164877050492       10.90827544739703
H           23.03543698853488       13.25151519512131       12.53705050528427
S           20.98316776171666       18.37046094403441        5.30798940712259
C           20.58125755705986       19.83544537960953        4.32484432943204
C           21.89203925671340       20.55591582996125        3.99890503453695
H           22.57771648915588       19.86402112433497        3.50184791275568
H           22.36579777334065       20.89014680133680        4.92711903651924
C           21.60235914572928       21.76056709988529        3.09368344583939
H           22.54578391688258       22.26862816564674        2.85867299736536
C           20.94045862851469       21.28326811368909        1.79514655490338
H           20.74409606247191       22.13882415415668        1.14156991731446
H           21.61139004278905       20.60067511795263        1.26434403276459
C           19.62614382947778       20.56744351377686        2.12813087038908
H           19.15295203441839       20.21771134145930        1.20197674264476
C           18.68277160596541       21.53362016214683        2.85299550515723
H           17.73972570690049       21.03113082131144        3.09192660955592
H           18.45396771824534       22.38908632966306        2.21013575728434
C           19.35408154056552       22.00891204935394        4.14420543584962
H           18.68061454271495       22.69282749539247        4.67642627639249
C           19.63990061527958       20.80033297563463        5.03905019360966
H           20.08011323285491       21.12900630529389        5.98378431885729
H           18.70284726486447       20.28783414205044        5.27596887984265
C           19.91800782047591       19.36173405754972        3.02909646839441
H           18.98767229673671       18.83608626943163        3.26436846364035
H           20.57849845822526       18.65901684649314        2.51346321814217
C           20.66507822943676       22.73057464125997        3.82166916707840
H           21.13412775963079       23.08006715374742        4.74713780325818
H           20.46677272845472       23.60416068430614        3.19325326472128
S           14.98544690039911       21.35028429122631        4.61963123309128
C           13.63263745193173       22.48696308848107        5.02087687368615
C           13.07600927437170       22.24754742853192        6.42317945702940
H           13.87190818900287       22.37719522442289        7.16267986639548
H           12.71249601364631       21.21875251819422        6.50796473548216
C           11.93292897740650       23.22999651257120        6.69830171843585
H           11.53834014399276       23.04981687376099        7.70540872655852
C           12.46194421238743       24.66458794382015        6.60481318270271
H           11.65737092544252       25.37497612071283        6.81680974955618
H           13.25029770974442       24.81700925560467        7.34879909838754
C           13.01876908756134       24.90645259833441        5.19765824838346
H           13.40595168379958       25.93015065735682        5.12702809872009
C           11.90501655975068       24.70614777374774        4.16371984693898
H           12.29224730649550       24.89169169598716        3.15717770738324
H           11.09305025360680       25.41575981147668        4.34902926647885
C           11.37781139669402       23.27034985991963        4.26327856158194
H           10.58628075242225       23.11672290865183        3.51972798008486
C           12.52245659789248       22.28800692004949        3.98735747629578
H           12.15206996670214       21.26074211385182        4.04101477155733
H           12.92317303214889       22.44935875056633        2.98283492577400
C           14.16050612993593       23.91939728499564        4.92298932649531
H           14.58256708822539       24.09180632986381        3.92919170631386
H           14.95989761956552       24.06532889819251        5.65576811643438
C           10.81832530830148       23.01960117365070        5.66792587669569
H           10.43331558545442       21.99714390256002        5.73937112473178
H            9.99013340534292       23.70567999205529        5.86903758218683
S           13.03017928261918       17.24655083748129        5.91232007507281
C           11.25451623694386       17.33979001062434        5.55110811550639
C           10.46051158000234       16.75172618214224        6.71208929421326
H           10.65217897290497       17.32853022493943        7.62200012758941
H           10.78363415745108       15.72417637714336        6.89902395223869
C            8.96657358268787       16.77375539184317        6.37272876859864
H            8.40408551864489       16.33731999532436        7.20676059095943
C            8.52358869167218       18.22561984443826        6.15645983779515
H            7.45478836282507       18.26025043909771        5.92559184597266
H            8.69132620066088       18.80651739917044        7.06886060721547
C            9.32681440132343       18.82833365074063        4.99868298867379
H            9.02550881388312       19.87204510171195        4.84519125713858
C            9.07212334358813       18.02470561582642        3.71849114416268
H            9.63657984629830       18.45912165338396        2.88703757162933
H            8.00950770210589       18.06149567011999        3.46093823357630
C            9.50697363298575       16.57169015465631        3.94055755334725
H            9.33215401812546       15.99072052704603        3.02706327759245
C           11.00194361234332       16.53656189513713        4.27635956429016
H           11.32700119222601       15.50332145920260        4.42170445412471
H           11.58346000284397       16.95679269769276        3.45160326289290
C           10.82328257195819       18.78862859692591        5.33570866602498
H           11.39675717093249       19.22441060226211        4.51304634262038
H           11.02439784138924       19.37636126413274        6.23595054581436
C            8.71364181669630       15.95933237337215        5.09927051706338
H            9.02646318111254       14.92049722310646        5.24806148636697
H            7.64534477250874       15.95992148556084        4.86316171780843
S           12.40935276832155       14.29643402673130        8.88270133607947
C           12.40793847507359       12.82659575816418        9.93276524087407
C           12.65031461578990       13.29316178594577       11.36871509221447
H           11.89442170436599       14.03225972257873       11.64814960065359
H           13.63133955490599       13.77393810438993       11.43090176038799
C           12.59432130309576       12.08561461252506       12.31267819599978
H           12.76330344686139       12.42346657218691       13.34244308054575
C           11.22106546979797       11.41245597346708       12.21550577671869
H           11.17698739490080       10.55793754495692       12.89762453959992
H           10.43743312470296       12.11838617220400       12.50780360399987
C           10.99006091082352       10.94418724600593       10.77431098586324
H           10.00530484882624       10.46716960232368       10.69585416093189
C           12.07844917410190        9.94213351303801       10.37138864984747
H           11.90973820508078        9.60235939444563        9.34439405666426
H           12.04180287225275        9.06674960878452       11.02677931096412
C           13.44907507855418       10.61907953793167       10.47656322179044
H           14.23530118406049        9.91106021933888       10.18588328098639
C           13.48961654655178       11.82563451372959        9.53410155412073
H           14.47152136206084       12.30517349235690        9.58411199716556
H           13.33231787567010       11.49981130591197        8.50186168766411
C           11.03670712906904       12.15598778286069        9.83614363502748
H           10.86064900057318       11.83340385178503        8.80537720343400
H           10.25384060706524       12.87243881819587       10.09992989267241
C           13.68590244799002       11.08723521760014       11.91675876456881
H           14.66491656680667       11.56877297601215       11.99544796466640
H           13.67455985461513       10.22952043159107       12.59587844535670
S           18.59008911052270       11.57148357949406        8.56755121351213
C           18.48389063579218       10.79415383475692       10.20210710685240
C           17.61287147246042       11.58690051762883       11.17464230163967
H           16.59223379965986       11.64893172040928       10.78695754418213
H           17.99542061317517       12.60737931104659       11.26829025550927
C           17.61847505810857       10.90059322476687       12.54697833135870
H           16.98539152094749       11.47256849475929       13.23701113821597
C           17.07605066103056        9.47282864966672       12.41979100857880
H           17.06985727197988        8.98878621430578       13.40126290589766
H           16.04714788580665        9.49254038637435       12.04907052684947
C           17.95929614432085        8.68314563741757       11.44855534934921
H           17.56984590962773        7.66290889877393       11.34475297445205
C           19.39566081585988        8.63211973306505       11.98101357015924
H           20.02715444826325        8.05718609352968       11.29664723468879
H           19.41407837065110        8.13439677528712       12.95547471326118
C           19.93283533454316       10.06180472676014       12.11183225296315
H           20.96270147170411       10.03508435966985       12.48871629044644
C           19.91923433036090       10.73349413682656       10.73256025211300
H           20.32509648536405       11.74469732153554       10.79973006126184
H           20.54347153134037       10.17061137852802       10.03298850365642
C           17.93806906288144        9.37005344962666       10.07744190517409
H           18.53847037818679        8.80474899933328        9.35994410909825
H           16.91155080542875        9.40521406500209        9.70054222472167
C           19.05189924606140       10.85287005843586       13.08591527557574
H           19.43892135184428       11.86996750872593       13.20178562715138
H           19.06489968881735       10.37652260918737       14.07114509002111
S           18.98526792912825       13.47817277848257        5.46120339959897
C           19.78993182879258       13.84383645500246        3.88559549505159
C           21.28436709365564       13.53966039103633        4.00789780810481
H           21.42696767003463       12.50695385759430        4.33821711677678
H           21.73191438988874       14.19845546567894        4.75804492743659
C           21.95622666807342       13.76002417342819        2.64488982225442
H           23.02721097308037       13.54048597035492        2.73483328636787
C           21.32826972446250       12.82445321481164        1.60469189928881
H           21.81416209540605       12.96702561055801        0.63458044121679
H           21.47331460048810       11.78181118549746        1.90440195841629
C           19.82980747540908       13.12868028771862        1.48771297408604
H           19.37350094839101       12.45502278585002        0.75175317936267
C           19.62875582575442       14.58301535116958        1.04988580856773
H           18.55901454833194       14.80334501063178        0.96759167951534
H           20.08310032795063       14.74632323412048        0.06787561102387
C           20.26768220256028       15.51249385466612        2.08609493452834
H           20.11945489637821       16.55558264147614        1.78093294007881
C           19.60804658899882       15.29280218468523        3.44983495184765
H           20.06053485033067       15.96000260940189        4.18780520226508
H           18.54448789279955       15.53268857376358        3.39209730917072
C           19.16212605788265       12.91095804820373        2.84912556769807
H           18.08976295798643       13.11705305799980        2.77400514701963
H           19.28021834947565       11.87189986376739        3.16927419556376
C           21.76650466389591       15.21659593497605        2.20484256928251
H           22.21897114255821       15.89173701771919        2.93817925507086
H           22.25996631440872       15.38301148253588        1.24245119148932
S           16.60652124681814       16.69851525886824        2.40052392876211
C           15.43680277057991       17.69051728887484        1.44513681156157
C           13.99484351363940       17.48602990285639        1.90042703943738
H           13.90369555424175       17.75892077909598        2.95609792106151
H           13.72104561748135       16.43081399177438        1.80964919203787
C           13.05522545238757       18.35140096173389        1.05647294869233
H           12.02187433855442       18.19866072397642        1.39402392517614
C           13.43823538525718       19.82413779280412        1.22913680986263
H           12.76066215855544       20.46085408242349        0.65220469635486
H           13.34754107314540       20.10247013449785        2.28352002443749
C           14.88327109462625       20.03273982650821        0.76399879721173
H           15.16012835769685       21.08670123885797        0.89044272399143
C           15.00992738327225       19.63902156660670       -0.71233493942719
H           16.03777179234091       19.79791011537883       -1.05286231072075
H           14.35159483271996       20.26423855064902       -1.32328293350650
C           14.62812325834628       18.16279385601741       -0.87547429353700
H           14.72463022094384       17.87323105056916       -1.92915639982651
C           15.56577552502721       17.29368350694173       -0.02768992131392
H           15.30765156575224       16.23721428567134       -0.14680264235218
H           16.60175757783165       17.42245490763462       -0.35345817967306
C           15.82284804613811       19.16094340706344        1.60478182448583
H           16.85876456690204       19.30417188245402        1.28486066580344
H           15.75561220181291       19.44798271444766        2.65828588279902
C           13.18016408157776       17.95207976680010       -0.41796139154691
H           12.89745463399940       16.90207364954551       -0.54425291061386
H           12.50298014216577       18.55814052884934       -1.02751208304090
S           14.69325317550327       12.41046673019652        2.08440063182487
C           14.05805031590834       12.47092680905493        0.39044610053716
C           13.17262252998751       13.69288344894936        0.15322958495662
H           13.74210028155386       14.60413333210516        0.35618124460126
H           12.32364634343124       13.67462524424928        0.84368412488392
C           12.67541989326161       13.69909779323446       -1.29612726752313
H           12.04484078988362       14.58274684213943       -1.45573430502406
C           13.87717205706693       13.74811358848967       -2.24650566277157
H           13.53174204112821       13.76701166500713       -3.28463212989073
H           14.45549343218734       14.66032573334211       -2.06734677776835
C           14.75859071471973       12.51634734694625       -2.00967597270239
H           15.62136957840725       12.54693261270598       -2.68625615933533
C           13.94721356524179       11.24184866129753       -2.27083441067610
H           14.57704361349586       10.36084452087670       -2.11274660367952
H           13.60074278112566       11.22665500521495       -3.30872530201423
C           12.74573986391151       11.20187798413924       -1.31907819221721
H           12.16543786271945       10.28868447390538       -1.49956674162796
C           13.24312153003823       11.20221764796352        0.13231302763724
H           12.39396355772717       11.16580314246432        0.82184227291211
H           13.86048663489625       10.31881995131162        0.31610030169191
C           15.25621997215567       12.51618878737436       -0.55901213702472
H           15.90287000192054       11.65247944691915       -0.37998361113529
H           15.84256916358982       13.41914755066637       -0.36339914247716
C           11.85826215518242       12.42890816137004       -1.55795213380673
H           10.99221723194422       12.39899177809625       -0.88925310321981
H           11.48927150935311       12.42783998841865       -2.58812679197962
S           10.80821300861106       12.88664010916506        4.70849238676859
C           10.20691240144383       11.20115009302116        4.98892895830113
C           11.23275028133290       10.32606535039040        5.70382954324189
H           11.49463475855551       10.77108279510762        6.66857057778008
H           12.14965662896813       10.26790152275991        5.11338049832209
C           10.65851573376069        8.92304785343777        5.92074525343259
H           11.40781365931765        8.30688096926003        6.43273366817607
C            9.39399750533361        9.02045011608262        6.78113451363256
H            8.98060579915454        8.02223204049626        6.95435440707931
H            9.63990830536902        9.45685845010578        7.75474271398967
C            8.36195454797243        9.89664090416591        6.06142261528924
H            7.45477729588660        9.97338086872787        6.67337204265401
C            8.01326633637616        9.27430513624072        4.70413559600804
H            7.26678720960194        9.89011355808434        4.19272608749861
H            7.58505993539853        8.27794554959097        4.85028656384817
C            9.28300289370776        9.17587944231991        3.85020750202900
H            9.03649118775793        8.73550399355646        2.87624964289110
C            9.86482664717341       10.57908654969790        3.63413204758313
H           10.77025314565719       10.51930191990448        3.02203788889136
H            9.14499007883544       11.21140592558280        3.10656466031883
C            8.94249972022975       11.30043832754868        5.84530338547072
H            8.20880172484465       11.94240514057850        5.34920877944954
H            9.18974877498926       11.75629252336541        6.80888582941468
C           10.31663452446807        8.29738800394108        4.56409296375034
H           11.22170695170005        8.21561158384057        3.95397024052634
H            9.91526794133777        7.28957966190902        4.70747758699865
S           14.70285687057084       10.01573770781527        6.36224412740391
C           15.50107267177626        9.25821980834530        4.92045897888541
C           16.11687556430622        7.93616566734662        5.38842028009604
H           15.34411500199785        7.31561235862066        5.85123489607855
H           16.88074025742086        8.13932796772900        6.14477146945504
C           16.74172674934756        7.20524055061309        4.19348613214186
H           17.17592581400872        6.25840366830725        4.53783105558063
C           15.66109586490553        6.92056285845310        3.14344577702285
H           16.09837558013920        6.38811739661405        2.29312802851971
H           14.88136590912827        6.28461913325174        3.57453051669133
C           15.05311277762774        8.24690858381598        2.67239717878618
H           14.27487891394415        8.05012364007931        1.92413634433328
C           16.14894678114951        9.12197925977322        2.05460435420775
H           15.72081708792243       10.06956568523979        1.71247785618877
H           16.59045311186833        8.61667443530622        1.19012992828833
C           17.22357466476172        9.40173847075338        3.10875251182676
H           18.00563956873587       10.03696353133259        2.67453930672093
C           16.58897799518903       10.13164323920959        4.29742005443217
H           17.35474023513232       10.36446121356542        5.04352769555410
H           16.15581850645977       11.07793204567056        3.96061867977941
C           14.42589814605404        8.97304330812258        3.86953844037708
H           13.97747572817979        9.91490480800909        3.53964816357783
H           13.63423031087622        8.35861626393751        4.30832215918265
C           17.84102695215408        8.08196249213592        3.58286228210808
H           18.61729174861515        8.27981586680503        4.32868845268655
H           18.30763803508978        7.56442817888134        2.73903692878122
