264
 energy: -470.740771236395 gnorm: 0.000486116944 xtb: 6.5.1 (579679a)
Au          18.09842002298948       11.93715364082544       14.06605266496730
Au          18.45759038965460       13.47296937775715       17.36715401325958
Au          20.13558588077713       13.98845352089724       14.89400046476515
Au          20.72422842148809       13.39507415881761       11.98305179363621
Au          23.03050472339808       13.16556615729811       17.29958048862725
Au          21.50977545070393       15.69144140521621       17.05537687215509
Au          22.40304166768552       15.98368457161831       14.22051156680721
Au          20.01789987474384       17.65809302934887       13.66102544387216
Au          23.48945156938840       18.56393059779889       12.99135064072871
Au          22.25322667085828       18.14704375036947       15.93540818863517
Au          24.18534441933383       16.03151807434540       16.37637475405843
Au          23.31405985640154       16.06972113532809       19.49630625301886
Au          26.36534168881743       16.19634886546071       18.91421587092609
Au          24.47629716725697       18.61427045735563       18.23934967173768
Au          25.52664814234702       18.80934524448804       15.56379546743470
Au          23.13877108401010       20.92058669120791       15.00464951837770
Au          26.61470244655243       21.75593942955130       14.59799367253574
Au          25.25811094562884       21.07889930368053       17.14020100730320
Au          27.20133247085112       18.91479496791843       17.81130714787032
Au          26.50318101387775       19.26651703021019       20.68645513956121
Au          30.64476463640731       20.47050439020603       18.62731484093732
Au          28.03497814598682       21.87418783258458       18.18286433173871
Au          26.28964837088442       24.28428687751995       18.73823976925906
Au          29.90157827050169       24.03152889104967       19.13497068581755
C           15.50562531315589       12.45318646080952       16.04851093942775
C           14.68824505896979       11.98718816908464       15.02459472608291
H           15.04512698410903       11.19689260836372       14.37496108941570
C           13.42578072673820       12.52772853319978       14.82902715607342
H           12.79981147384762       12.15363109199418       14.02662210658277
C           12.96628713440051       13.54364474953813       15.65715102704967
H           11.98318717556529       13.97206971217047       15.50036328997600
C           13.77320935831793       14.00445220198041       16.68803615217008
H           13.42364806857113       14.79392562801171       17.34384700489198
C           15.03243168248492       13.45642365957278       16.88422927167676
H           15.65422164701554       13.81024659697337       17.69772700211674
C           19.51650582177187       10.24213750882599       11.61355375206736
C           18.75489723487751        9.13975269715771       11.98549617667028
H           17.74810402315234        9.28797488657346       12.35744200268436
C           19.27543778611471        7.85774753804207       11.88682233451127
H           18.66938253207652        7.00796880881381       12.18042442224612
C           20.56714010439594        7.66408522655024       11.41447545384181
H           20.97760996135508        6.66348591355518       11.34436854431308
C           21.32758983896336        8.75991321577492       11.03097787095035
H           22.33563609081915        8.62096692329291       10.65672035688086
C           20.80081668407110       10.03980170220562       11.12538898133122
H           21.39329427627978       10.89177496303388       10.81437957900348
C           20.94980580133972       10.89721472187394       15.89268450833545
C           20.54646742473614       10.79353770530233       17.21676135037196
H           20.86032292277531       11.54333053254626       17.93348976485668
C           19.75408808073301        9.73292456910639       17.63063256527989
H           19.44654885167342        9.66790451165874       18.66824392828378
C           19.35329778173693        8.76467328817224       16.71978888432952
H           18.73152029544102        7.93772616689367       17.04212161412987
C           19.75340651782269        8.86318027471124       15.39427791283372
H           19.44964141347677        8.11251472727275       14.67355537826010
C           20.54469835584798        9.92704952182367       14.98242936931569
H           20.87143211317758        9.99706272898045       13.95256136316617
C           17.59697299780244       15.33889695371132       13.18908383334477
C           18.03680742081518       15.47785570463435       11.87999432956238
H           18.97100112086292       15.98898793066236       11.67919147125555
C           17.28433423986171       14.97705139193310       10.82773821382205
H           17.64274685611995       15.09283562959519        9.81108598100674
C           16.08294927179907       14.32696983733205       11.07650726401549
H           15.49643061400707       13.93300047719769       10.25483945955021
C           15.63865362899127       14.18427929638434       12.38382155377320
H           14.70124536196448       13.68103125321003       12.59170620875132
C           16.39489503843532       14.68452478615844       13.43517046286093
H           16.04263527509380       14.58844817583702       14.45446270574367
C           24.10478058411367       13.68716411798335       12.31662432119610
C           23.95010903013034       12.30758918182335       12.33259828979920
H           22.96454323754127       11.87959869198324       12.19517323894767
C           25.04156646165628       11.47379122226735       12.52637814301728
H           24.90024022619491       10.39869136373375       12.53233593698130
C           26.30766060346116       12.01375205773475       12.70864908082381
H           27.16193766450089       11.36439175221815       12.85992725948140
C           26.46873343697477       13.39392911751551       12.70494144063603
H           27.45063261555711       13.82916400610135       12.85514919085440
C           25.37384426755077       14.22220304650519       12.51053285795803
H           25.50643101449591       15.29850204475338       12.51199444316545
C           18.53067691923055       16.69829672986412       18.45351728652540
C           17.29498896982102       16.64535195067810       17.82275683476264
H           16.95899322856567       15.71342228354158       17.38480113801093
C           16.49062650192913       17.77236107185217       17.74211857091592
H           15.52864772033697       17.70979072703213       17.24562661837338
C           16.91578261641929       18.97273126252003       18.29521882634008
H           16.28956705750331       19.85498859440685       18.23338978026904
C           18.15526986766063       19.03599897620530       18.92010458402736
H           18.50287073626329       19.96956198793229       19.34826180045504
C           18.95531519081651       17.90604738933729       18.99673764898405
H           19.92394875245787       17.96369110106744       19.48078782784819
C           22.37685377068069       12.89091865376910       20.39580144436912
C           21.46741808989640       13.63989544763371       21.12802843120266
H           21.60692046733711       14.71007112672501       21.22213374297888
C           20.37442214694691       13.03248165987330       21.72861201317141
H           19.66666551924795       13.63455624407164       22.28706161421579
C           20.18604083199738       11.66267055127733       21.60946361684029
H           19.33000441061120       11.18729721971917       22.07393368866833
C           21.10305170591558       10.90452082643647       20.89356895319048
H           20.97186688473719        9.83211631200260       20.80295839695513
C           22.19063521797201       11.51680344855029       20.28801421313536
H           22.90432481165929       10.92388987141764       19.72894044208127
C           20.94900405910385       18.25833475844081       10.70278049430056
C           19.65493309063282       18.15381940718483       10.20347030165376
H           18.84223177545853       18.64989269164582       10.72007635660262
C           19.40189986112664       17.42473557548919        9.05068518919773
H           18.38852209369783       17.35471290346620        8.67170990753936
C           20.44138971306270       16.78533800629739        8.38821094135890
H           20.24358412093818       16.20606728621589        7.49387968817284
C           21.73550628271339       16.89534527669154        8.87737203356544
H           22.55579715966302       16.40277515462476        8.36767424584151
C           21.98555201311148       17.63281565544704       10.02525495684525
H           22.99794071097578       17.71305169953402       10.40252829416882
C           26.43410786842395       13.46533157893999       16.89995820624129
C           25.74325033350478       12.69521470010290       15.97059474600339
H           25.29949223808851       13.17531097080954       15.10862733773721
C           25.64528564903052       11.31803634618961       16.12703539798561
H           25.10709289358217       10.73474018180168       15.38867229061564
C           26.23226352215264       10.69975562062467       17.22193792108010
H           26.14977755961378        9.62703672023519       17.35164632381478
C           26.92693675475431       11.46478311211654       18.14981916122482
H           27.38996065750775       10.99075316397480       19.00792440483414
C           27.03040560123383       12.83816477810328       17.98610854690996
H           27.57453932471386       13.43012241502904       18.71256533374965
C           26.81534775638043       18.97344298614210       12.38351607860752
C           26.46502600991140       19.37730648258973       11.10155858666944
H           25.56944392577239       18.97675499367512       10.64155424874062
C           27.24571761456771       20.29567832967347       10.41508963929297
H           26.95422346869582       20.60911769486431        9.41897794464155
C           28.39210853610869       20.81567894906989       11.00145105829241
H           28.99951602286283       21.53665321755160       10.46700611194611
C           28.75559533136850       20.40506738244675       12.27634496225285
H           29.65267908952267       20.79397818541885       12.74431984456076
C           27.96864689760131       19.48917081734808       12.96329733267387
H           28.26087182637380       19.15875582563474       13.95140390236878
C           23.18464645080094       19.01869817526338       21.33288616751368
C           23.54802625081940       20.35996954022353       21.41454338882890
H           23.42959196591224       21.00319991639617       20.54954877509045
C           24.05516157208968       20.87946175863317       22.59844022585192
H           24.33677552599107       21.92525061753423       22.64697593869335
C           24.20834001401570       20.06098560200201       23.70932227607882
H           24.61176873332516       20.46377374658388       24.63096773179288
C           23.84275761227033       18.72357111477305       23.63234326735780
H           23.95916608132760       18.07712319260441       24.49486888650224
C           23.33012478863157       18.20794143960700       22.45132639197352
H           23.04758097528388       17.16337520206035       22.39304005251496
C           19.88575091809267       20.61515246334969       15.54269808325046
C           18.84285313251276       19.69958573875934       15.63325066416274
H           18.91552256541246       18.88071944256309       16.33629361516336
C           17.70310723725643       19.84632454698559       14.85199671903954
H           16.89701697308250       19.12734892184391       14.94385023824677
C           17.60251011054098       20.90702317980583       13.96245234172941
H           16.71882251691668       21.01909537075788       13.34523278989428
C           18.64108563054038       21.82423542060672       13.86941645218650
H           18.57223822178833       22.65659610261745       13.17802351796982
C           19.77223960854944       21.68079188967909       14.65915539425023
H           20.57663930327464       22.40314879199608       14.58713764168830
C           28.30554575193293       16.85699723871684       21.64754740181099
C           29.22357838805482       16.22102843337343       20.82431758738671
H           28.88291179402961       15.72577267787755       19.92300713582737
C           30.57445090689839       16.22405002244329       21.13849227838307
H           31.27927922815890       15.73243314484273       20.47758674850147
C           31.02008400031870       16.85622983061938       22.29090759971558
H           32.07547928058858       16.86102763493047       22.53709181870462
C           30.10455250382033       17.48110890361113       23.12748617498947
H           30.44002482258544       17.97095829686066       24.03458157940342
C           28.75553403640524       17.48530563074203       22.80382337796351
H           28.04396847899858       17.97952773127291       23.45404914929191
C           24.15110027062330       23.36075293889954       12.79871962776722
C           22.82680206516261       23.64197839948696       12.48605692610161
H           22.08841236839352       22.84959520054757       12.52357243909048
C           22.45025026475714       24.92631069478988       12.12365236431606
H           21.41440691244561       25.13427028367964       11.88043691152349
C           23.39668281263296       25.94218683071078       12.07577300120706
H           23.10367605999335       26.94658222573371       11.79332128455371
C           24.72020301234043       25.66453672855200       12.39271370076081
H           25.46559879548183       26.45110808387514       12.36037899225415
C           25.09471102522100       24.37723493050491       12.74911803028125
H           26.12958705076234       24.15967094950982       12.98593827991405
C           30.06911813349046       18.15270660039982       16.18820984187688
C           29.52967913841237       17.08375059311377       15.48032210984551
H           28.84664530900838       16.40325856002988       15.97639439336718
C           29.85188373316286       16.88373313408210       14.14685717481311
H           29.41868724601932       16.04689925850488       13.61003766334379
C           30.72394674196655       17.75201692777173       13.50200052671265
H           30.97814969718356       17.59733226895460       12.46001556871652
C           31.25842824800360       18.82645305348042       14.20048371578427
H           31.93647347133744       19.51482143988082       13.70832125487094
C           30.92811398924225       19.02457155871125       15.53309478751986
H           31.34319114290550       19.86876281312435       16.07049230864736
C           28.99156026874624       23.86104110129909       15.71832386696917
C           27.94993308125925       24.76305138314557       15.55084964201449
H           26.93705846697178       24.39598631333674       15.43441064325003
C           28.19651574363354       26.12778267658040       15.53369247898472
H           27.37210193450499       26.81949424273883       15.40247645781156
C           29.49151711222214       26.60421270555893       15.69027321671351
H           29.68400416116784       27.67062184482572       15.68128729352971
C           30.53696016101520       25.70697211472324       15.85960457881462
H           31.55284625133340       26.06559759214538       15.98085963726910
C           30.28660589859727       24.34155613223338       15.87610730115128
H           31.10145988833506       23.63829982810720       15.99049286886573
C           28.55282708971167       21.79450839958522       21.50532015905440
C           29.43448785925112       20.73449943623115       21.67010542118433
H           29.19592740952917       19.76712183781318       21.24476952792984
C           30.60734639992734       20.90138661922181       22.39218491301946
H           31.28453958220046       20.06329565992579       22.51179052385791
C           30.91298197793327       22.13476786792841       22.95242312438166
H           31.83233798214991       22.26604821570963       23.51090057368420
C           30.03278644334014       23.19631595994477       22.79506462867733
H           30.25566000587361       24.16362653850035       23.23121768044203
C           28.85943792234373       23.02580931256078       22.07234918268010
H           28.16137884176080       23.84576002997205       21.96589710842715
C           23.17820788393234       23.90774895779649       17.31285778370795
C           23.70548539915525       24.77313449918584       16.36430349512580
H           24.77917052439533       24.91013612150398       16.30328307265313
C           22.86949038195574       25.46277862874487       15.50041832131013
H           23.29440966246517       26.14531120155341       14.77346174909236
C           21.49470697232105       25.27830623024933       15.56331605830983
H           20.84242705390406       25.81102432685650       14.88098739863206
C           20.96181862193814       24.41025064571002       16.50668355630799
H           19.88936142432307       24.26345935634828       16.56915985376550
C           21.80107138238478       23.73305923341192       17.38021084993560
H           21.38656084887220       23.05921450552366       18.12003415228862
C           32.82760082387451       23.01157263965538       17.94539413980441
C           33.22113877132594       24.34057417153456       17.83065590833004
H           32.89128053768616       25.06014609920864       18.57046196161860
C           34.02665222736508       24.74815617085845       16.77766455635148
H           34.32513897717612       25.78769805574540       16.70099157591700
C           34.44778777226850       23.82888402121226       15.82547687147123
H           35.07140687111819       24.14771624814637       14.99841080821555
C           34.06642851767575       22.49943257617554       15.94103489199076
H           34.39209446228602       21.77205190684868       15.20590450092922
C           33.26530204247796       22.09475997921078       16.99884753574390
H           32.97741449016252       21.05446362450230       17.09139259767703
C           28.13499804925880       26.19897349352450       20.85935631006387
C           26.94020987672516       26.16088657507560       21.56712470135728
H           26.02962999611615       25.86244613001351       21.06084597652744
C           26.90490778631102       26.49859565617784       22.91243580227621
H           25.96493026392982       26.45852241510385       23.45129479246376
C           28.06819171313450       26.88203393410138       23.56510629968740
H           28.04340054800025       27.14165154894771       24.61706821355943
C           29.26473909169010       26.93012019771296       22.86152347417724
H           30.17878514946394       27.23149438972251       23.36087158255349
C           29.29575632255522       26.59215904058822       21.51677481176921
H           30.23088164692929       26.62977067980566       20.97078590336803
Se          17.19196787716254       11.65631843909446       16.32074002544267
Se          18.75585879615076       11.96392266139830       11.70945067334087
Se          22.00534034264618       12.31134839151885       15.23727517359386
Se          18.56136448710263       15.96386068618120       14.68010229182041
Se          22.68197231237129       14.86616570136608       11.94791095553444
Se          19.62129102133378       15.17888025946569       18.68598252710892
Se          23.88390114769846       13.65259790423473       19.54812515044172
Se          21.22028553980904       19.28001396425755       12.26877428973937
Se          26.60430608383749       15.32035587860333       16.62185193189940
Se          25.78567206353963       17.69599757050964       13.30936936106414
Se          22.43337924090326       18.37388105493030       19.72874009845160
Se          21.38817573476979       20.42339516909821       16.66442852341267
Se          26.44995684213892       16.88990474297833       21.28566667940785
Se          24.65313344774966       21.58110989008081       13.16065740879703
Se          29.66579799234594       18.30691224769133       18.02227722801717
Se          28.75006442828253       21.99365946516761       15.76950782801244
Se          26.97314270287172       21.66879587110602       20.48821304594957
Se          24.24500256425689       22.96006356352784       18.54379693348286
Se          31.78183972430415       22.48931240637512       19.42259686181805
Se          28.20981919349892       25.79773657702911       19.01876626574527
