324
 energy: -541.636553336694 gnorm: 0.000576495543 xtb: 6.5.1 (579679a)
Au           2.92092596793604        1.80466295733171        9.06052165292639
Au           5.94468161253159        1.65319951103235       10.91963850340913
Au           4.96444737609944       -0.70198265450654        9.18431329278968
Au           2.27364683505455       -0.30372154640293        7.32375297124256
Au           0.68272860329772        2.02140437261772        7.41760675705818
Au          -0.68209458429070        0.01137428686657        5.64457109335145
Au           0.81493300208774        4.51545923134058        5.79495290405547
Au           5.48185708405755        1.15756816888710        6.99596820649655
Au           2.60563245072227        1.96713996718766        4.97502260112019
Au           4.57392687809947       -0.50544526685761        4.63641874380608
Au           2.50744069924585        4.38868610387820        3.16651382461719
Au           4.29704849272658        1.70220367294372        2.40827328319246
S            4.24675260270065        3.24524236304204       10.51031294676763
C            4.97610854699951        4.51199714746948        9.43505220748066
H            4.86884401281562        4.21158117737154        8.39161610192425
H            4.38289572929769        5.41243585045058        9.59957487089991
C            6.41131655371015        4.74705304362244        9.77626160089982
C            6.77595922584835        5.77509435615107       10.64179649529613
H            6.01385727017894        6.43007130475033       11.04999709835365
C            8.10825499691425        5.96929217180483       10.98142064509109
H            8.38075788947378        6.77584824059365       11.65274032751515
C            9.08857281470951        5.13105396776321       10.46702560854193
H           10.12829711608642        5.27944822084404       10.73486472613797
C            8.73196626942518        4.10474525095345        9.60264314427656
H            9.49268485828062        3.45653172795172        9.18493052430371
C            7.40269204313427        3.91626867147120        9.25568660436779
H            7.13691951476992        3.13516075383174        8.55142867967545
S            6.60294866896540       -0.88765678367039        7.35069337996567
C            8.24197158139397       -0.53902098041533        8.02641551204291
H            8.17627602188167       -0.33390530467628        9.09709804405604
H            8.78606547284952       -1.47989782830499        7.90409748099725
C            9.01322123366166        0.55557527543274        7.34182679113179
C           10.06063449211023        1.16128299077475        8.03528654407086
H           10.27033632792181        0.86429775169892        9.05760127395047
C           10.84172640862920        2.13287085455277        7.42507905158187
H           11.65728211340164        2.59019064788736        7.97418694100797
C           10.58843209968254        2.51130873691726        6.11310448254475
H           11.20149573319080        3.26718346058082        5.63587931161016
C            9.54901163649300        1.91106157024113        5.41637923747601
H            9.35033084100186        2.18460845288038        4.38578142938189
C            8.76837213259179        0.93992090097343        6.02822735891000
H            7.96666267102624        0.47684937240355        5.46756175198591
S            3.29531405335042       -2.02688237136295        5.90977340023541
C            1.97009484748188       -2.64945026264042        4.83730176761707
H            1.60255135664361       -3.55280762393797        5.32594475247985
H            1.15761370926499       -1.92646579887915        4.78113653168781
C            2.50980398040991       -2.94337746118637        3.47608619574057
C            3.15991663054297       -4.14771058180473        3.21792650541421
H            3.24267740196157       -4.89301444111488        4.00173215226936
C            3.70331129845505       -4.39356839405472        1.96486592196149
H            4.20608149589966       -5.33440678715112        1.77078280218507
C            3.60822085251042       -3.43669055993566        0.96208553932537
H            4.03868808085941       -3.62879680611785       -0.01406937721867
C            2.95777553980436       -2.23580366414525        1.21297791738163
H            2.87528777617584       -1.48732939953804        0.43262867842194
C            2.40951691631526       -1.99120113782025        2.46289063124071
H            1.88947295737472       -1.05764378677639        2.65468549916242
S           -1.14410827432018        3.40348064207285        6.54855887616121
C           -1.72944204670247        4.40997853188919        7.94398669861467
H           -2.64008821338842        3.92250099717412        8.29438397484475
H           -1.98181136717287        5.39568186819824        7.55269885640149
C           -0.72272503566714        4.50770692887073        9.04735106850766
C            0.28839032170148        5.46573886914110        9.00719711947215
H            0.31219376095795        6.18986823695881        8.19966850078391
C            1.26183221771997        5.50221984369486        9.99436207527245
H            2.04678646898275        6.24911354040191        9.94800959514640
C            1.23398640987312        4.58350300842111       11.03516592714852
H            2.00659685122860        4.59494726037491       11.79535897021922
C            0.21981974443038        3.63904231074034       11.09177805987649
H            0.19709556814563        2.91493842136055       11.89828256866368
C           -0.75540998990093        3.60346475967778       10.10596331195469
H           -1.54528041203424        2.86322191843878       10.15863249350182
S           -2.22232384858226       -0.86906441135405        7.21981463938041
C           -3.22096084535231       -2.04902427876022        6.26343836319895
H           -3.59151716269712       -2.79572861314566        6.96618667451774
H           -4.06249072475752       -1.48200375939793        5.86447564939487
C           -2.43216456482140       -2.68782811786150        5.16308712514459
C           -1.74474169466602       -3.87881878814642        5.37897538091155
H           -1.85618871921358       -4.40218366925937        6.32000188902467
C           -0.92844573693209       -4.41034430922519        4.39020722734135
H           -0.39786719862674       -5.33802135025930        4.57344060217489
C           -0.79080257649596       -3.75605913901030        3.17336211147446
H           -0.14196318968399       -4.16314436072828        2.40661439527495
C           -1.49257109959570       -2.58111169641164        2.94149615782558
H           -1.40111398970280       -2.06980902632023        1.98982127140155
C           -2.31260617495460       -2.05255234578191        3.92843450967835
H           -2.87604586712746       -1.14770451760938        3.73523863154868
S            2.41741246701356        6.02642844976453        4.89122253567677
C            1.36089820518614        7.31531914435880        4.16032446325543
H            1.04806684857182        7.96526017016420        4.97726776339182
H            1.98764755601084        7.88117559905569        3.47099785428623
C            0.18128356310925        6.72055797436898        3.45780346319574
C           -0.99731275095768        6.46193982029977        4.15480216496816
H           -1.10552105741729        6.80932489265907        5.17601056308826
C           -2.03518176468218        5.76745840333131        3.54814328640567
H           -2.94132981074590        5.55975843836195        4.10585542314992
C           -1.90896716866457        5.33071087624853        2.23679509368527
H           -2.71139571450607        4.77091577528252        1.77046060975542
C           -0.75542762671558        5.62310165769137        1.52162484808603
H           -0.65930717071326        5.30434667010377        0.48987413511104
C            0.28232576049953        6.31843767472235        2.12692472964241
H            1.17424361856606        6.55792948065479        1.55868565367598
S            4.27489396281004        3.08891400349573        6.32241894428889
C            5.39665827363193        3.93553390164529        5.16514139541046
H            6.02213603396731        3.21050668036475        4.64620263131897
H            4.76761059814153        4.44013813802088        4.43149367998234
C            6.21835297259953        4.93990170167757        5.90708137810574
C            5.61494794948419        6.07996720832936        6.43742137212414
H            4.54795260172369        6.22963608081286        6.30408980204818
C            6.37218167048632        7.01698479484029        7.12239143936612
H            5.89479784143044        7.89936637884527        7.53383852502107
C            7.73952877685727        6.82846309836256        7.28066162023538
H            8.33079131988770        7.56176026920351        7.81719992676445
C            8.34476591326896        5.69586361239083        6.75549684659662
H            9.41052260178884        5.53925778615485        6.88023889532415
C            7.58622861607283        4.75211900470576        6.07702304614390
H            8.06112928381529        3.86487097053712        5.67422474513517
S            0.77206808756128        0.78462764596523        3.93861803268749
C           -0.16840291892785        2.06615226065279        3.06229349901575
H           -0.18294607723730        2.98475247436628        3.64877863270615
H            0.37265904737488        2.25112140422999        2.13338586949753
C           -1.56052082022753        1.59819008535872        2.79009283449363
C           -2.58993163596468        1.91171036964057        3.67585535784401
H           -2.38091601611880        2.52289109826993        4.54827156050460
C           -3.87981107695964        1.46037166511966        3.43818626988792
H           -4.67461712971593        1.70985478263526        4.13206882117415
C           -4.15234023546107        0.69439041087505        2.31224217913056
H           -5.16045278884630        0.34295593615624        2.12470896237395
C           -3.13055865952733        0.38285323841081        1.42377706425451
H           -3.34102087816499       -0.21160805737433        0.54181304418607
C           -1.83873433744721        0.82891718664609        1.66294752931304
H           -1.04185198189068        0.58220488645404        0.96971266295884
S            6.19203567901918        0.77562020440167        3.45878225744091
C            6.98267653241843       -0.46885199187873        2.38675722359151
H            6.30095241609271       -0.77207636046305        1.59383405097052
H            7.84915793337461        0.02548162094060        1.94691000294262
C            7.38704102126064       -1.63644012877571        3.23359688004365
C            8.58952960482133       -1.62627442715563        3.93598871787997
H            9.28883977852991       -0.80880161324430        3.79834869506852
C            8.89608642115008       -2.65620870234471        4.81459925597013
H            9.83004152006951       -2.63206028025609        5.36521288724530
C            8.00937418916543       -3.70888693151522        4.99529091635499
H            8.24365910050499       -4.50476647777325        5.69300399254714
C            6.82471574022682       -3.74263139736166        4.27230124656144
H            6.13547507168367       -4.57110465039514        4.39132344039072
C            6.51657424402529       -2.71230395730716        3.39630283237824
H            5.59702956734804       -2.74874182868392        2.82450424451257
S            2.67745883920312        2.98725954599983        1.24641647033904
C            3.72570537329382        3.99725980360435        0.15330830033676
H            4.06411319986029        3.34346648031251       -0.64997060933810
H            3.08316087670385        4.77339469021094       -0.26238358969090
C            4.88388065176221        4.59318744576211        0.89204728703112
C            4.75222200697114        5.82102579683316        1.53866705268106
H            3.84944069892185        6.40616555376963        1.40370285065533
C            5.77366651145628        6.30583730764056        2.34443147015870
H            5.65327425692958        7.25595190712922        2.85242178708220
C            6.94205569320980        5.57327182660841        2.50509588987126
H            7.73137948506650        5.94224859752924        3.14976805031183
C            7.09834833381996        4.37066129740433        1.82976279241252
H            8.01601490645851        3.80286431005128        1.93503761431251
C            6.07755503164623        3.88622156147752        1.02324785820159
H            6.21252152703590        2.95462891390590        0.48583839756089
Au           2.68633955316860       -2.35813222454713        9.63171297090420
Au          -0.33694659762284       -2.20564099916739        7.77254783797092
Au           0.64234476172761        0.14832218622954        9.50762738578314
Au           3.33333113306209       -0.25037743216616       11.36752067362088
Au           4.92374029931772       -2.57441946293736       11.27493135348337
Au           6.28860529950684       -0.56586800893082       13.04630710589593
Au           4.79172400054616       -5.06874804815742       12.89664494114644
Au           0.12479269601804       -1.71157739259648       11.69582904921956
Au           3.00187784253880       -2.52081954394517       13.71595686079777
Au           1.03297065218591       -0.04796078795999       14.05538566990773
Au           3.09954467500777       -4.94178177988483       15.52446736562596
Au           1.30981578564593       -2.25581149386800       16.28384612274326
S            1.36014548511232       -3.79887768121847        8.18139148788176
C            0.63092166627837       -5.06571077967819        9.25665050800971
H            0.73820181152625       -4.76528276384861       10.30008143388380
H            1.22415476205705       -5.96612780052916        9.09209484685566
C           -0.80429100875802       -5.30077615420903        8.91547266550740
C           -1.16894084110691       -6.32879343477518        8.04991708152238
H           -0.40684470528734       -6.98377173914408        7.64170950695977
C           -2.50123691286468       -6.52296899879489        7.71028474462616
H           -2.77374901420837       -7.32952892395799        7.03897374022723
C           -3.48154428617767       -5.68471024971407        8.22466588827967
H           -4.52127034349496       -5.83309733010951        7.95682861321502
C           -3.12492682063364       -4.65839660480404        9.08903842534983
H           -3.88563929882818       -4.01016995796365        9.50674209958908
C           -1.79565314058570       -4.46995226956359        9.43602173117813
H           -1.52987825129508       -3.68885701333707       10.14029775717726
S           -0.99589769966765        0.33414906468644       11.34101134814048
C           -2.63489707528565       -0.01464242940516       10.66529883536149
H           -2.56921090340819       -0.21974787176371        9.59461287743525
H           -3.17901579674839        0.92622051446484       10.78761688008325
C           -3.40614763369347       -1.10925285637905       11.34987417785217
C           -4.45357694155956       -1.71494015429629       10.65641466462496
H           -4.66328838062396       -1.41793481902327        9.63410735461189
C           -5.23468297463537       -2.68652253744880       11.26661461333855
H           -6.05024389458123       -3.14383110929512       10.71750362814060
C           -4.98139306356076       -3.06496958980471       12.57858639342566
H           -5.59445966676615       -3.82084768343989       13.05580364065371
C           -3.94196514844102       -2.46473626143448       13.27531466782477
H           -3.74328970296005       -2.73829499051874       14.30591022626063
C           -3.16129832453567       -1.49361292845014       12.66346883980699
H           -2.35956617508283       -1.03056891947885       13.22412799799427
S            2.31191786019019        1.47312922729597       12.78173991054308
C            3.63695558779947        2.09584637694867       13.85434802523209
H            4.00450453672535        2.99920213930517       13.36570831342635
H            4.44944060737244        1.37287790646893       13.91054719015927
C            3.09721164245358        2.38974657645686       15.21555660267931
C            2.44711476478780        3.59408425796409       15.47373104197080
H            2.36438043928120        4.33940646010841       14.68994029074293
C            1.90373010815104        3.83993627541102       16.72679713618121
H            1.40098299501619        4.78078382775235       16.92089560254646
C            1.99880952691502        2.88304563217576       17.72956644823406
H            1.56834800097324        3.07514763766938       18.70572485502214
C            2.64924208747110        1.68215451870983       17.47866029190226
H            2.73172263604418        0.93367162322617       18.25900206023335
C            3.19750001781723        1.43756060072637       16.22874429298392
H            3.71753494127472        0.50399850666787       16.03693645399390
S            6.75095984723209       -3.95695250537178       12.14293751510050
C            7.33646113847725       -4.96362063594165       10.74768745004477
H            8.24710952850315       -4.47614055336175       10.39730511968088
H            7.58882492995548       -5.94929528299755       11.13905038915672
C            6.32980718628563       -5.06143244157779        9.64426949598648
C            5.31866891147824       -6.01943784777424        9.68445952746785
H            5.29485707126755       -6.74354594833678       10.49200638334691
C            4.34520413989904       -6.05590885501647        8.69731837670733
H            3.56025153766130       -6.80280330356816        8.74368395618577
C            4.37302926680547       -5.13718868001104        7.65651724392721
H            3.60041016853895       -5.14863988783670        6.89633386205317
C            5.38719726816454       -4.19273199574651        7.59988313912687
H            5.40988435957393       -3.46860135536372        6.79340104295361
C            6.36248211748779       -4.15719866925860        8.58564515789998
H            7.15229011076230       -3.41688742914112        8.53302221743484
S            7.82942202670279        0.31516558862905       11.47202020198021
C            8.82797927895584        1.49534942255833       12.42821042706506
H            9.19854147381069        2.24203923898670       11.72544698671019
H            9.66951409672361        0.92836169585639       12.82720833226485
C            8.03917234750810        2.13414645818310       13.52855543622564
C            7.35172062291972        3.32510975359106       13.31264822184278
H            7.46308834713547        3.84840018200642       12.37157165693070
C            6.53548300271198        3.85667506174261       14.30144670634690
H            6.00491397443807        4.78435840306080       14.11821806966989
C            6.39785083937633        3.20240363185697       15.51830259054845
H            5.74901885578456        3.60949690314856       16.28505341021535
C            7.09961438426721        2.02745518178109       15.75017178458352
H            7.00816075160610        1.51615839025813       16.70185097669521
C            7.91965242706024        1.49889663258949       14.76323351598833
H            8.48314677817800        0.59408965909468       14.95646709138244
S            3.18981376601336       -6.57994670050152       13.80058614896685
C            4.24616388370679       -7.86904707284942       14.53133313866653
H            4.55897527849633       -8.51893732362640       13.71434217430851
H            3.61939078341632       -8.43490228473453       15.22063862658248
C            5.42577948711062       -7.27431004399983       15.23386456332243
C            6.60435303043312       -7.01561916316204       14.53685362319349
H            6.71257935177160       -7.36300343273209       13.51564700343455
C            7.64220154234978       -6.32111067219867       15.14351690401345
H            8.54834214350209       -6.11337896979119       14.58580504714276
C            7.51598138220063       -5.88439166160926       16.45487392772584
H            8.31840296863006       -5.32459615721370       16.92121933499473
C            6.36245138301598       -6.17682132893553       17.17004307468551
H            6.26632635557722       -5.85808739957611       18.20179963804199
C            5.32472167725557       -6.87219057918037       16.56474225670027
H            4.43283778578099       -7.11175947695628       17.13300253326262
S            1.33232082438143       -3.64264616508020       12.36931164713001
C            0.21038272121706       -4.48916496609178       13.52650222133413
H           -0.41509956390442       -3.76411933277803       14.04541395220686
H            0.83938257393340       -4.99377512046801       14.26018530334634
C           -0.61130965822215       -5.49354840724935       12.78457425009683
C           -0.00790139013318       -6.63361068415411       12.25422958295551
H            1.05909405913602       -6.78326991905387       12.38754520707353
C           -0.76512496784142       -7.57062701077068       11.56924835940531
H           -0.28773033182855       -8.45299453714576       11.15778310871238
C           -2.13247342713252       -7.38211695242333       11.41098309566197
H           -2.72372843231971       -8.11541088022903       10.87443220065003
C           -2.73772049713375       -6.24953198902968       11.93616774515163
H           -3.80347970840703       -6.09293724607169       11.81143325968872
C           -1.97919012187432       -5.30578474155562       12.61464712162112
H           -2.45410190765778       -4.41855341184253       13.01746883691241
S            4.83491997227247       -1.33820832918451       14.75315594468678
C            5.77541274266904       -2.61978024243749       15.62940184703671
H            5.78991913736965       -3.53839215517344       15.04292989259300
H            5.23435709657407       -2.80473811947525       16.55831339285763
C            7.16754335505271       -2.15185727723513       15.90161399332355
C            8.19694449024066       -2.46536051885498       15.01583358410306
H            7.98791958939606       -3.07652217307126       14.14340842494314
C            9.48682419289427       -2.01401626943141       15.25348616617985
H           10.28161950459639       -2.26348370104486       14.55958560785888
C            9.75936756552563       -1.24804949519948       16.37943646237449
H           10.76748143653716       -0.89661285797325       16.56695868904902
C            8.73759711743640       -0.93652670696278       17.26791881870806
H            8.94806978465540       -0.34207484532173       18.14988669315573
C            7.44577105795843       -1.38259364339875       17.02876215422239
H            6.64889665190892       -1.13588392223746       17.72200704507071
S           -0.58503898828246       -1.32932289320415       15.23273144601824
C           -1.37554960450256       -0.08485911638555       16.30488503277453
H           -0.69382540437325        0.21835986344762       17.09781546816344
H           -2.24203029485830       -0.57918638538267       16.74474466728845
C           -1.77995593800172        1.08274758986587       15.45808720971945
C           -2.98246832862636        1.07259443988286       14.75573049600676
H           -3.68177164681003        0.25511561962261       14.89336974457627
C           -3.28904938263619        2.10253818427684       13.87713756197530
H           -4.22300799638174        2.07838433535392       13.32652919348897
C           -2.40234913079192        3.15522602581927       13.69644461675709
H           -2.63664695413458        3.95110769287222       12.99873761041339
C           -1.21768260510496        3.18897365278626       14.41942154507887
H           -0.52845220431948        4.01745573319644       14.30040026980976
C           -0.90951026384624        2.15862930538808       15.29539035525146
H            0.01004514937560        2.19506255861395       15.86717076876399
S            2.92960783689557       -3.54110076619684       17.44528309105110
C            1.88129367802949       -4.55100525813314       18.53840508876265
H            1.54290452794201       -3.89719656527765       19.34167875553922
H            2.52382086543841       -5.32715916577320       18.95408327915163
C            0.72311868053978       -5.14690052682119       17.79963865656562
C            0.85476321112668       -6.37473716035553       17.15300947876744
H            1.75750166517853       -6.95993115589272       17.28802926387786
C           -0.16667178863272       -6.85951660467748       16.34721523153085
H           -0.04629059727509       -7.80963060206530       15.83922121802159
C           -1.33504509057223       -6.12692904272535       16.18654128367554
H           -2.12436904557375       -6.49588939711882       15.54186002046326
C           -1.49132325344873       -4.92431869753747       16.86187860693038
H           -2.40897903681754       -4.35650583553386       16.75659754178404
C           -0.47052913136810       -4.43989867657620       17.66840567959789
H           -0.60546794117396       -3.50828938095028       18.20579232967377
