456
 energy: -718.563693245492 gnorm: 0.000048125863 xtb: 6.5.1 (579679a)
Au          15.36000378124357        0.82739684933214        6.10339911684465
Au          15.41456709025512        0.39733320973173        9.02102319749264
Au          12.51452532778183        1.24026974510259        6.15113366092052
Au          18.15350693662718        1.24672849419027       10.02108216897728
Au          16.12335482305637        5.07623405972689        8.20599582363649
Au          13.28225934041806        5.52027470382427        8.17837855825973
Au          10.72393977709555        5.30258251399502        9.58392216367084
Au          13.03054220716108        3.52143871432764       10.33815130666538
Au          12.57971972648332        0.87415106020883        9.10334089160884
Au          15.86467360183930        3.01482586752361       10.32010992902810
Au          10.29287491394239        2.49724181126735       10.24249858049310
Au          18.57725827696085        4.04526016661421        9.36676798075539
Au          12.96047383050454        4.10380414502484        5.59697830936357
Au           9.99709929928989        1.01904945821797        7.75565463481736
Au          11.59595933318595        3.25998907551050        7.91982916145240
Au          15.80768543505461        3.72913916549670        5.58745272895495
Au          17.83531163445396       -0.22010277695955        7.51583316548471
Au          19.98433045188421        1.92766798962498        7.68356137985328
Au          16.99383797359294        2.40797157749006        7.79256664786162
Au          10.19201616874427        2.92024885632543        5.54976322989414
Au          10.67428999182697        5.56546307190985        6.68413542637476
Au          18.03216005923769        1.69111515520444        5.32525188403585
Au          18.51057216424842        4.31641140739658        6.47509686397673
Au           8.62037236998621        3.73405803036671        8.01301037661984
P           18.82734784793024        1.15693952807549        3.13713515550359
P           19.85722712858730        5.43821433816960       10.82117032004652
P           18.37973603661190       -2.53289634447669        7.23560106235540
P            9.15145277527494        2.66429890332150        3.41325918845815
P           10.09531665627235        7.03603201230311       11.10464143181852
P           19.01628139098436        0.14221352977520       11.95190765895977
P            9.27937373433136        1.77378728086826       12.28072913350067
P            8.68097471865034       -0.94952950767875        7.48628966097084
P           19.73254589140939        6.05757101776079        5.39545599293891
P           10.01336504725125        7.62915140780367        5.67621723855293
S           13.72498761161944       -0.17122346386417        4.50102331100535
S           14.52936286544078        5.08377040371081        3.92730048552470
S           15.00376371373163        7.22338502216444        8.78358381038777
S           14.47699016065498        3.34283385781622       12.36167328044738
S           13.70593323598725       -1.25669391894584        9.76217529135290
Br           6.14157165998491        4.16545970384666        8.13066640385976
Br          22.45439570959089        1.46011085779611        7.48409041789573
C           18.95035169902570        5.94980392087690       12.31407365337729
C           19.41592180599421        6.92641172317346       13.19925387062197
H           20.37761915866646        7.39726627560881       13.02780590801704
C           17.69682794051218        5.38367210117556       12.54341996492516
H           17.31604567758318        4.63552603734256       11.85903262574903
C           16.92286490047666        5.77108070110819       13.62462735216932
H           15.94683534239307        5.32115150334171       13.76583578183774
C           17.39936724588212        6.73383536655882       14.50381440332460
H           16.79759302093635        7.04242413821100       15.35102060378743
C           18.64674710184636        7.30712015064747       14.28834678442115
H           19.01970315544147        8.06376538597375       14.96925856842231
C           20.45448725200146        7.03221775559330       10.17373846379864
C           21.73412434366444        7.53074487602071       10.42050233855782
H           22.44024726739540        6.94509025237853       10.99811874605269
C           22.10602976529943        8.77385921671843        9.92973765880564
H           23.09994338987282        9.15552354733831       10.13369291300116
C           21.21007338933735        9.52902703125434        9.18494210084036
H           21.50285476576638       10.50109101094506        8.80543379247634
C           19.93908494700802        9.03406864185128        8.92226479509811
H           19.23818051754788        9.61580203499502        8.33454061773384
C           19.56514947494463        7.79315455435245        9.41089838070380
H           18.57297797679369        7.40656132965094        9.20265294632053
C           21.34775324912415        4.55881444906615       11.36728954480728
C           21.76660177158398        4.43812172676141       12.69207006061443
H           21.22802738807633        4.95017766795707       13.48150910719169
C           22.86560002028683        3.65132199559839       13.00638867318317
H           23.18267614549648        3.56541165656802       14.03956189317777
C           23.54753609837899        2.96446245443230       12.01145823610837
H           24.39407497734243        2.33795259464826       12.26756521890867
C           23.13684404821043        3.07581896744983       10.68929772390956
H           23.64675323955561        2.53474799719729        9.89954073938996
C           22.04842281367045        3.86901321598698       10.37251295270752
H           21.72580796895577        3.94477075188870        9.33959037849835
C           17.80297485695124       -0.91497710425299       12.80325567691217
C           18.03234243984574       -1.48728417883106       14.05793702602150
H           18.98114613792811       -1.32943918812424       14.55877891445919
C           17.04706095518359       -2.24572519835611       14.67144566830003
H           17.23725508095105       -2.68541784514502       15.64393649414436
C           15.81817567999540       -2.43777246556151       14.05157180817326
H           15.04912710433335       -3.02646206259259       14.53843768304434
C           15.57700013180878       -1.86692308015969       12.80924496492595
H           14.62318472428145       -1.99699506852975       12.31077448326227
C           16.56414235851198       -1.11293432959590       12.19568308273184
H           16.36657705992772       -0.66582440129175       11.22941535285386
C           20.40314040522551       -0.92266168854090       11.46875086860305
C           21.34733418395593       -0.34752313900983       10.61155479116622
H           21.26597133745206        0.70276247510098       10.35213745115533
C           22.37120456958976       -1.10512278711782       10.07169442778462
H           23.07309467015242       -0.63885095604726        9.38881415913774
C           22.47118837781230       -2.45429811873656       10.38609257357597
H           23.26465879551715       -3.05559737806109        9.95756499442774
C           21.54623549061471       -3.03384255157396       11.24356553424716
H           21.62025973622085       -4.08710088288873       11.48971143589336
C           20.51138072756232       -2.27869371033115       11.77682528131058
H           19.78029083664161       -2.74931368676491       12.42464207636750
C           19.63663511880413        1.17437116463348       13.31746578180580
C           18.86902746195942        2.28249725090762       13.68504092319367
H           17.96472794277789        2.51399125805201       13.13186313563337
C           19.25114980198810        3.08289500475337       14.74883557555712
H           18.64354033432235        3.93652419159922       15.02700832476979
C           20.41056759466908        2.78974369655806       15.45566529811823
H           20.70915395971968        3.41307860469552       16.29050500855348
C           21.18884116998608        1.70048563402713       15.08725626949828
H           22.09622904012381        1.47158899358511       15.63441170470061
C           20.80779572061239        0.89638139572420       14.02280943544707
H           21.42129275148576        0.04889840290334       13.73874996033802
C           19.97721809117973        5.91034731742193        3.59719557503159
C           18.89084975845641        5.47622163887462        2.83348411408716
H           17.96338648521195        5.20717487406947        3.32800949172807
C           18.98823863319589        5.38970240697479        1.45461026848963
H           18.13648589503416        5.05432928413291        0.87393226448847
C           20.17603396470857        5.73085806147777        0.82059067192154
H           20.25280656817167        5.66677071692389       -0.25860402078825
C           21.26664883316709        6.14705026209507        1.57230450494940
H           22.19701041867657        6.40806723194364        1.08096713434623
C           21.17179682137252        6.23503108615995        2.95352100247839
H           22.02847057669208        6.55741585102827        3.53444958673648
C           18.94915836713098        7.69466568124646        5.53528097394520
C           19.35639580794838        8.80586641496501        4.79124122926409
H           20.19563464674270        8.72214798405605        4.10960621812511
C           18.68280710187625       10.01205623890528        4.90939297952257
H           19.00957376403272       10.86725400682635        4.32879653761114
C           17.58773686150931       10.12618822702896        5.75722168665432
H           17.05861310486236       11.06875582126361        5.83905719549223
C           17.16840362665040        9.02571976667484        6.49218424590030
H           16.30800772028376        9.08842557404554        7.14840149406480
C           17.84828515939861        7.82415216006972        6.38095110023475
H           17.51172179568134        6.96867955030300        6.95354452796376
C           20.49889962245644        1.81747805704878        2.88357584819432
C           20.92390296389053        2.48323995334718        1.73401422166259
H           20.24986031598173        2.60134402432429        0.89306181824188
C           22.20686780614611        3.00702198048067        1.66654789276017
H           22.52622811136659        3.52321139975332        0.76825944719203
C           23.07600772027474        2.88310593158636        2.74218096103003
H           24.07270608788296        3.30513966879991        2.68531516586835
C           22.66169739928031        2.22380994083063        3.89173813164457
H           23.32175381272568        2.12242759036542        4.74637614617371
C           21.38348203668808        1.69733790967101        3.95959414745970
H           21.06298167803543        1.19702929511026        4.86678813194263
C           17.78545061544787        1.80656904036432        1.79526734434434
C           17.89191273469617        1.37599599647543        0.46951819590744
H           18.63824386895336        0.63734388706035        0.19957048330338
C           17.03581796789235        1.87735233941477       -0.49986564879051
H           17.13017271511860        1.53820045609824       -1.52512369426730
C           16.05638854518932        2.80422250765837       -0.16236831754095
H           15.38428834470193        3.18568116250877       -0.92250060363508
C           15.93688103799772        3.23237859673486        1.15209849078990
H           15.16980803409532        3.94245783819839        1.43932104221973
C           16.79777477135046        2.73701420380959        2.11811042463762
H           16.69626445845414        3.07342587716730        3.14263386843469
C           18.94594391387420       -0.61237770473847        2.73322066873535
C           17.75441184732987       -1.33108513111662        2.59013461988621
H           16.80269260746999       -0.81345757850666        2.65295209629217
C           17.78063754496977       -2.69582974435834        2.35673406348538
H           16.84951024403652       -3.23985955581641        2.24736843499187
C           18.99468576807354       -3.36347114958436        2.26407406019137
H           19.01469947214453       -4.43147649670112        2.08059275004886
C           20.18149941303097       -2.65875976846800        2.40737643531728
H           21.13202603559222       -3.17419581754842        2.33243765660493
C           20.16057439963771       -1.29383543171668        2.65137326576389
H           21.09371438135914       -0.75531533166500        2.77146376391204
C           19.96055713685892       -2.80106451838387        6.38199348267964
C           20.25092399447948       -3.92354818763790        5.60338101644752
H           19.49908116887779       -4.69114365015555        5.45677082509876
C           21.49813037947832       -4.05458150263666        5.01025330114692
H           21.71845438827361       -4.93437787768351        4.41624892555389
C           22.46154307211693       -3.06609368893553        5.17169510550423
H           23.43131264288173       -3.17368758461809        4.69973388721438
C           22.17666913616088       -1.94077027833780        5.93275336492349
H           22.91154384648862       -1.15383268169435        6.06438034757429
C           20.93662599362737       -1.81468588121384        6.53510621699262
H           20.72362101246128       -0.93469434431856        7.13153083598489
C           18.48918190047280       -3.56351871716550        8.73444416617979
C           17.54492276785291       -3.34326971805056        9.74045554206091
H           16.80922056763615       -2.55504613563780        9.62028853636783
C           17.54059712361721       -4.12168670525515       10.88627040894350
H           16.79705621392914       -3.94532894830590       11.65475409807621
C           18.48766156085201       -5.12396781170771       11.05023713717828
H           18.48354209654396       -5.73339463348449       11.94644086720915
C           19.44182483833159       -5.33909642242499       10.06518710648343
H           20.18541824877867       -6.11808891591636       10.18918541143823
C           19.44551354332850       -4.56400664292726        8.91466408215849
H           20.19608353868182       -4.73993037479705        8.15263697600026
C           17.11202135799330       -3.40191489162131        6.25875516190071
C           16.35343772998763       -2.64694859338526        5.36327879195337
H           16.57416141108917       -1.59400903564552        5.23435553799709
C           15.31639781004502       -3.21816478947037        4.64547398797458
H           14.72862698682042       -2.60015937856475        3.97509955429180
C           15.02332007494868       -4.56496090484054        4.80921563151062
H           14.20967840281041       -5.01625042311025        4.25283493087076
C           15.77292982679394       -5.33126098723748        5.69264392799759
H           15.54620772195853       -6.38297264410507        5.82594852565123
C           16.80696471914339       -4.75631633056933        6.41696100675710
H           17.37274066982939       -5.36103948900031        7.11660160199249
C            8.53870128397901        8.34574330154788        6.46190877879320
C            8.21576539456687        9.70365796861591        6.41709262817394
H            8.87373207467708       10.40155796581550        5.91131356292926
C            7.05484404201527       10.16325456608364        7.02047469423649
H            6.80896322089654       11.21813165374501        6.97371989617659
C            6.20778904042806        9.28138271063352        7.68140249793940
H            5.30375331259521        9.64975444617399        8.15234785386860
C            6.52439666869846        7.93141001201102        7.73827872664100
H            5.87726390385949        7.22619441938651        8.24871561148001
C            7.68074414150493        7.47139640441724        7.13133934624639
H            7.91825693329872        6.41488294550414        7.17641253085204
C            9.59276566214260        7.55759819488126        3.90948037336306
C           10.61793842652783        7.32595787540642        2.98662081101227
H           11.64712780003383        7.27478771011133        3.32640476048464
C           10.33055307995518        7.17138064608084        1.64060194562432
H           11.13550495252888        6.99508786323885        0.93652550448678
C            9.01713178544396        7.23921443974572        1.19545924685303
H            8.79352618667458        7.11755897790389        0.14194485394927
C            7.99258477658728        7.46177362114245        2.10452785788734
H            6.96540466742680        7.51737679552272        1.76303255700097
C            8.27427595509438        7.60942949418061        3.45405136007129
H            7.46490480571824        7.77187526063285        4.15671523631448
C           11.31380597295957        8.89909762154654        5.76330872577733
C           11.41903423742995        9.96720910425987        4.86820578167285
H           10.68530493692099       10.08733919053040        4.07926335967558
C           12.46941987542687       10.86780476719533        4.97371534948239
H           12.53806595159501       11.69359084007678        4.27472965856193
C           13.43123213523531       10.71516146535754        5.96495089792583
H           14.25459047570007       11.41670425681699        6.03646822001264
C           13.33635703262513        9.65837834387621        6.85936685806987
H           14.08227353182572        9.51442127287560        7.63413415640237
C           12.28497290480283        8.76306555165367        6.75598088674856
H           12.21965049913409        7.93802111623858        7.45498166956276
C           10.01680279495681        8.71724085199684       10.41594087483455
C            8.82172743791841        9.42293213737697       10.27075345083907
H            7.89263341736771        8.99421576830167       10.62847821195245
C            8.81559229967061       10.67539787929637        9.67528094174972
H            7.88197219045104       11.21758216269920        9.57898960962425
C            9.99498050178008       11.23091007354996        9.20019140611806
H            9.98620993969367       12.20710529479643        8.72939607581809
C           11.18723290092671       10.53058281740201        9.32787458029752
H           12.11171649451946       10.95727277182984        8.95655623622123
C           11.19934290112318        9.28288686330938        9.92830029043070
H           12.13478102166789        8.74235932761010       10.02807397550184
C            8.45375969331193        6.76575268637600       11.83674054257534
C            7.55429188651997        5.98164979868293       11.11209264093906
H            7.85658577833364        5.55603718480989       10.16221702542263
C            6.27615866865086        5.73945390691042       11.58607321808474
H            5.60011847869766        5.12757511207423       10.99856945122433
C            5.87744469530071        6.28340018870817       12.79902683807830
H            4.87828243624384        6.09974486235900       13.17679196834669
C            6.76406830480909        7.06331978715672       13.53207582160904
H            6.45453306324720        7.49020349575011       14.47936966381357
C            8.04616045729862        7.30185079382428       13.06013666504203
H            8.73282849172049        7.90402304702131       13.64461797925713
C            9.20748570630371        2.99175738933313       13.62919285587974
C            8.00956797053988        3.53592872148584       14.09460751412989
H            7.06478631198264        3.19068021766163       13.69072479365972
C            8.01915703011201        4.51440333069043       15.07723217863481
H            7.08087280263325        4.92057353289861       15.43714797802896
C            9.22121442438733        4.97589923238096       15.59428179025552
H            9.22624981863120        5.74520132117064       16.35771371313773
C           10.41891433136664        4.45012661188699       15.12829343154070
H           11.36147100233676        4.80808930133469       15.52571523973439
C           10.41403181701269        3.46824728487615       14.15184546712674
H           11.35341200042728        3.06020706852353       13.79390383254887
C           11.26173698195090        7.20432283247315       12.49168315688768
C           11.43395072101755        8.38478141416359       13.21983473295349
H           10.83525550208663        9.25772842856020       12.98574437809565
C           12.38083420794416        8.45087913733856       14.23204554005707
H           12.50259867336338        9.37158031819813       14.79122245778027
C           13.17372771728684        7.34863331447558       14.52763977286428
H           13.91881650076345        7.40942352728964       15.31270956215563
C           13.01195566094392        6.17195653081037       13.81009503754795
H           13.62860520007084        5.30326647081854       14.01642842923089
C           12.06233164667324        6.10520062531815       12.80412781994891
H           11.94471638447430        5.18471340767174       12.24519960284246
C            7.18208488462156       -0.55187605905726        6.54500064397072
C            6.72422606022253       -1.26801861545053        5.43924625132403
H            7.22905776352489       -2.17759785469551        5.13359787866604
C            5.62976478703356       -0.81165768437547        4.71860478261201
H            5.28394406602599       -1.37499011803030        3.85925493529738
C            4.98823673843465        0.36498514057806        5.08104941135390
H            4.14449616245036        0.72299697377351        4.50248609057619
C            5.43579999771007        1.08496663556753        6.18101980182155
H            4.95576244661911        2.01233948276830        6.47449504153392
C            6.52277446288357        0.62801539337480        6.90480287613818
H            6.87736132978289        1.20373808278523        7.75272912187914
C            7.64498508522339        3.66371096171369        3.23468016305286
C            7.16061281828063        4.14619124235617        2.01697829701853
H            7.70438467939987        3.94806580775639        1.09991795950672
C            5.98894229241947        4.88831328309169        1.97976926785587
H            5.61401301750086        5.24911622333715        1.02861861471733
C            5.29801098902176        5.17241514510511        3.15157170543712
H            4.38750884836149        5.75922178521985        3.11390783000587
C            5.77961173990727        4.70866615521058        4.36813727836455
H            5.26009264762738        4.92706052974916        5.29504908031531
C            6.94124814600035        3.95671958078584        4.40447856023744
H            7.30955607092976        3.59444494330917        5.35763257525054
C            8.65490183296673        0.98014627658593        2.92677857740511
C            9.48268939160870       -0.07408852392797        3.32060352995654
H           10.36106613253614        0.13276434288475        3.92259881046333
C            9.19094808633196       -1.37706506736563        2.95148911460370
H            9.84441747244140       -2.18426770159915        3.26147364006092
C            8.06199226116825       -1.64701632537688        2.18937039365088
H            7.83400663666839       -2.66592353451882        1.89876942865311
C            7.22251753190798       -0.60915000445153        1.80784776333757
H            6.33671454009790       -0.81542703834231        1.21799719134048
C            7.51354140753785        0.69657513527044        2.17507382478200
H            6.84845410535379        1.49869609158741        1.87600239300618
C           10.26444731684070        3.15741777254006        2.05803151604464
C           10.21825579061195        2.60387625765423        0.77591570773430
H            9.45291624143869        1.87768586966132        0.52635446725727
C           11.15707919103035        2.96726505303382       -0.17860863086712
H           11.11009716462165        2.52953317927944       -1.16928843246596
C           12.16107622329504        3.87540754166137        0.13303986765484
H           12.90021399279358        4.14637384097938       -0.61225580341598
C           12.21782369491431        4.43036837786039        1.40406437500882
H           13.00740681817015        5.12473682602679        1.67124096553414
C           11.27322658788206        4.07588568757595        2.35224005505777
H           11.32406916086479        4.51154884859295        3.34298823660487
C           12.96492050527867       -4.29570748452066        9.51302498863110
C           11.67461591304015       -4.71000112751442        9.19219672064716
H           11.32303498548191       -4.63543821196776        8.16872258905298
C           10.83829752288758       -5.22685709886145       10.17117470073555
H            9.83665635760790       -5.54906340566255        9.90864803809333
C           11.28001015812741       -5.32732896938889       11.48409269499954
H           10.62644824455014       -5.73100177872064       12.24891256270328
C           12.56499624406625       -4.91584469270783       11.81108265160908
H           12.91779484951891       -4.99478950835759       12.83364785271379
C           13.40191484638446       -4.40238812255159       10.82994727433132
H           14.40585882922120       -4.08382727427015       11.08778430528633
C            7.55514072687310        1.24494504449835       12.05811282600222
C            6.83871128715675        1.83562881150427       11.01524094084103
H            7.32311325493323        2.56458526856086       10.37567229428100
C            5.51432283531856        1.50519932385002       10.78395676268961
H            4.98399352232584        1.98156219473423        9.96641630498024
C            4.88495018333691        0.57393871733253       11.59833229866378
H            3.84817551373850        0.31013112289006       11.42432572864317
C            5.58824667869705       -0.02448609935524       12.63681314129363
H            5.09903575190609       -0.75343769111062       13.27297832910616
C            6.91619691959548        0.30288366665768       12.86659435608813
H            7.45872158849142       -0.17587967582473       13.67425177708080
C            8.11381832668856       -1.74618693212315        9.01864621300093
C            6.77302198456997       -1.83562915496026        9.39231803449849
H            5.99991520791714       -1.46522721235545        8.72885075003949
C            6.42398731902763       -2.40218032978485       10.60931683233299
H            5.37837671939765       -2.47473852212311       10.88573967248603
C            7.40550643986368       -2.86792891034449       11.47283159548658
H            7.12897104963166       -3.30279340366577       12.42631245931652
C            8.74383761046377       -2.77246671370444       11.11390935364940
H            9.51615632804153       -3.13041533994523       11.78504707453965
C            9.09642918097791       -2.21632213976857        9.89601973263863
H           10.14261154039784       -2.14997073672366        9.61507175660771
C           10.16400655765225        0.36526039812428       13.01684442221250
C           10.93581802266978       -0.42730791753519       12.16611174157611
H           10.95959746616449       -0.20309868465047       11.10643931259837
C           11.68052318542074       -1.48770499165354       12.65370783639429
H           12.28080354339816       -2.07583300485625       11.96758731105581
C           11.66417166964555       -1.77365230721425       14.01172297469405
H           12.25005200882172       -2.59851471013270       14.40112019812638
C           10.89910005685236       -0.99554102721636       14.87167255744332
H           10.88304983345849       -1.21639839303798       15.93288899702842
C           10.15493354639411        0.06860155288127       14.38230558594112
H            9.57398016383430        0.67838610389636       15.06488038467751
C           15.41404268163616        9.52869224039496       10.85622018746691
C           16.06720488900514       10.20241772338865        9.82876693555139
H           16.92280159347149        9.74180513046189        9.34770566874616
C           15.63384266022892       11.45592847378131        9.42029554509434
H           16.14863752698299       11.96874529020210        8.61505823034074
C           14.54434947890428       12.05146541755875       10.04127032536571
H           14.20528019006954       13.03104364499748        9.72429069127833
C           13.89509368475306       11.39021885006867       11.07590534040614
H           13.04848155297890       11.85366865417811       11.57029194350148
C           14.32390906008666       10.13301152955258       11.47701328364102
H           13.80989769808756        9.61963026779054       12.28292364031786
C            9.52431588818227       -2.30114663969965        6.60826998057687
C            9.04427085320532       -3.61369893263851        6.58733828151467
H            8.11565393941875       -3.85707268679088        7.09136696662319
C            9.75808727447964       -4.60879427167812        5.93595930292931
H            9.37557024475197       -5.62300820900936        5.92516736880767
C           10.96066748813240       -4.31380808120480        5.30421395848848
H           11.51737855725461       -5.09713395682645        4.80276622687113
C           11.44933297112365       -3.01499020111420        5.32408332360482
H           12.39071927964129       -2.76714307775156        4.84709461483166
C           10.73374714970279       -2.02114902543048        5.97244480545124
H           11.12270490467410       -1.01036284423697        5.98722355416457
C           13.59934074552740       -0.79595278938899        1.42259508544057
C           13.01848955756201       -1.98261613846593        1.86047860786585
H           12.16204571576874       -1.94488431965490        2.52434413980566
C           13.52658278632573       -3.20828275449578        1.45333159481673
H           13.06362956446688       -4.12600765181551        1.79947415632181
C           14.62496872697218       -3.25915480566390        0.60546747870888
H           15.02057028499190       -4.21576823992649        0.28391148847831
C           15.21006939188944       -2.07895417686109        0.16509182932857
H           16.06716436699481       -2.11212339400785       -0.49841606518701
C           14.70251765578878       -0.85419884598743        0.57490367093084
H           15.16405034220948        0.06381203239931        0.22663795209410
C           21.39866307699428        6.20130949802574        6.09979471370619
C           21.98677244995737        7.39150828281150        6.52754349930922
H           21.47182367359669        8.33486189581926        6.38468462605185
C           23.22683388450162        7.37145393462806        7.14996265466207
H           23.67469951364462        8.30274475877557        7.47782795306172
C           23.88616767405171        6.16947072258707        7.36756691031194
H           24.84682410658497        6.16094970426931        7.86937447468010
C           23.30736066581831        4.97847378574308        6.94855662868814
H           23.79945961734246        4.02771984545925        7.12253023532100
C           22.07553664467543        4.99732515811016        6.31888834808112
H           21.62280965182861        4.06320421487688        6.00429322236454
C           15.82659629760059        8.13281754808232       11.24054748130356
H           15.77367457214801        8.00614168996999       12.32709854337588
H           16.85318541479090        7.93400615097332       10.92076926464221
C           14.89046184522427        7.11232971997857       10.59183821006565
H           13.86125181396732        7.31855301630949       10.88821019492616
H           15.14932726004482        6.11045731864792       10.93177997432494
C           13.09367727756248        0.53211060539161        1.91962416801264
H           13.18091232748933        1.28922739855367        1.13305817618681
H           12.04221122052203        0.45847894260600        2.20980792590226
C           13.92024671418726        0.99119203159642        3.12146945013909
H           13.60987099991357        1.99320024234007        3.41576295632369
H           14.97456141136062        1.02530436614241        2.84540766654357
C           14.82937542444836        1.26830002974511       14.12516816843589
H           15.90560204431021        1.37266608625363       13.96219336946654
H           14.61643332025648        0.21943702008847       14.35713913330777
C           14.66408365699562        6.75679464859513        4.61804922686523
H           13.66318522660989        7.18308486716339        4.69802867871882
H           15.10279994376296        6.72548460828850        5.61449594690823
C           15.52463216784199        7.63365814037598        3.70725033039812
H           16.51066973080004        7.17496814233737        3.59379444161600
H           15.65170501171449        8.60869366600345        4.18912289100788
C           14.08758476310535        1.63578328821036       12.83953083846741
H           13.01168754591725        1.55804818260542       13.00123821273836
H           14.36430334955465        0.94286526387396       12.04608346201944
C           13.84409064087702       -3.67294119304964        8.46098084868050
H           14.89421739172506       -3.72222399144828        8.76072984897667
H           13.73335811994130       -4.20592183622892        7.51040251403890
C           13.44689319954815       -2.21273634857682        8.24037286335706
H           12.39147579116696       -2.16063564833548        7.97194311362545
H           14.03117692948522       -1.79517775375103        7.42101465473426
C           14.37799981695097        2.15323507200991       15.25613630913404
C           13.15213664217031        1.92537266174020       15.87631848698676
C           15.14354795595365        3.24645108076911       15.64963664515078
C           12.70040628684912        2.77807063060383       16.87334909086089
H           12.54921095291770        1.07264395991773       15.58149320815080
C           14.68858161432042        4.10550753914617       16.64014308849093
H           16.10418877137565        3.42312994223625       15.17861902902962
C           13.46415308463857        3.87470525562450       17.25222479395450
H           11.74708391759143        2.58780680195591       17.35388510719016
H           15.29235067860805        4.95698825510301       16.93485062298588
H           13.10797998053088        4.54392014429236       18.02701335298272
C           14.86084373334275        7.79905718958233        2.36660085667653
C           13.86176662993235        8.75301378571048        2.19177688144791
C           15.18705591381564        6.95756591274335        1.30709649482356
C           13.20479208011283        8.86727269051624        0.97470961810698
H           13.60080524968059        9.41596716059747        3.01021089952903
C           14.52586083560960        7.06580592280427        0.09176936429153
H           15.96580840550882        6.21430985690466        1.43621941446419
C           13.53180668808285        8.02045720157055       -0.07661221617477
H           12.43333826469296        9.61862892480906        0.84731018313866
H           14.78839302379562        6.40356365512582       -0.72608351282257
H           13.01712452076225        8.10870602470663       -1.02650915850280
