342
 energy: -563.291950948700 gnorm: 0.000633043304 xtb: 6.5.1 (579679a)
Au           3.35049027201046        3.49632520683479        8.35602310592739
Au           2.29386516901383        0.82979760556182        7.98429504582675
Au           4.76141699433268        4.12994160110214       10.91634900650901
Au           0.48669334209269        3.19668834254024        8.79392696505680
Au           5.07401157364256        1.34896415262337        7.87321498188572
Au           0.81901163927719        0.40268093143575        5.70817889761158
Au           1.36495355533435       -1.71826995955485        7.46247739544361
Au           4.46078012531456       -1.46841280963722        7.55955156614047
Au           3.78795850134940        1.08292755757772        5.16465406204006
Au           1.24856558066019        3.38238201998637        5.97220354290343
Au           1.47105267345229        6.06010588536251        9.07743616124154
Au           6.72231697212371        3.43168544156476        8.95995323395337
P            1.27882895668108       -4.06740580052933        7.02948147154734
P            0.13025833429249        0.50532881588671        3.42720310015141
C            4.40845146666083       -0.97624836059245        5.61074773637136
C            4.65501072885626       -0.94624171573794        4.39767579913172
C            4.98004403063739       -1.19892156589421        3.03846871296885
C            5.56375690548919       -2.42147033167960        2.68547900775150
H            5.77809435083853       -3.15366096780133        3.45471111382863
C            5.86628744188579       -2.68774189787937        1.36100789612046
H            6.31844353559431       -3.63605286129314        1.09482345529584
C            5.59224028185229       -1.74748468793835        0.37551180911293
H            5.82717603902377       -1.96256778567739       -0.66000796211162
C            5.02202529949611       -0.52862476167156        0.72053540315373
H            4.81243330308522        0.21081979859705       -0.04365767616486
C            4.72182590517869       -0.25326549986726        2.04320825106437
H            4.28749015031401        0.70042966510680        2.31996748792508
C            3.22011665573257        3.00511320305047        5.06413112372820
C            3.21217120388082        4.23450563795414        4.93269128391870
C            3.42895809563425        5.61665354485688        4.69614426404794
C            4.54716291190464        6.02156742778527        3.95722735360883
H            5.20889355339857        5.27382350066598        3.53651868830435
C            4.80317034018858        7.36954038925446        3.77367026725302
H            5.67463949714111        7.67718883656652        3.20759017545239
C            3.95224026109060        8.32506895017543        4.31468043620363
H            4.16103570887314        9.37893580124901        4.17382927333685
C            2.82987985176803        7.92895497868378        5.03107684814720
H            2.15937520506722        8.67157742206868        5.44811397135644
C            2.56568067773775        6.58369405947582        5.21807968305733
H            1.69221521173958        6.27000923007248        5.77898177201447
C           -0.64120554632905        3.28034480536458        6.63133482989181
C           -1.82769082155875        3.04634817548514        6.79166235507415
C           -3.20001606580143        2.77211804139708        7.00850661230577
C           -3.93279528794001        2.04466351034436        6.06632423594350
H           -3.45478354324029        1.73407679278436        5.14489335411293
C           -5.25556966282231        1.72121303521462        6.31683239893546
H           -5.81862436652981        1.15820003083808        5.58097741057633
C           -5.86008958719450        2.11457797941921        7.50434892289943
H           -6.89391145254724        1.85462757659091        7.69834126478541
C           -5.13998802428605        2.84458849588589        8.44146156103411
H           -5.61082463672514        3.15907538570940        9.36554798041360
C           -3.81681621593365        3.17594689944760        8.19909356701148
H           -3.25626203229447        3.76160124449820        8.91755919731636
C            6.99258815179701        2.37171631803312        7.23239931056235
C            7.24680170628918        2.06230211706153        6.07606580723574
C            7.49447066980099        1.68916967294301        4.73264532556846
C            8.23362189865684        0.53985584573525        4.42869011366497
H            8.66239185794681       -0.04644029009617        5.23297979234911
C            8.40654152366044        0.15584446968844        3.10994442479116
H            8.97738972762004       -0.73639591965221        2.87930452145228
C            7.84996552547291        0.90716379652483        2.08213828463567
H            7.98696535814669        0.60159810933077        1.05145120762070
C            7.11304979989084        2.04829633134431        2.37569196548962
H            6.67699201149487        2.63409050665816        1.57425037260811
C            6.93207683973540        2.43949167856249        3.69112172657523
H            6.35950205338991        3.32983086311493        3.92568936617006
C            6.84987279676308        4.73961894782343       10.50775290381046
C            7.38673508974331        5.65167793905944       11.11857996170665
C            7.99827130192440        6.71358925668694       11.82576455918864
C            9.28265972655295        6.57477836149289       12.36598280820664
H            9.82323712908654        5.64640970469858       12.22160018912504
C            9.85824666278115        7.62408661202642       13.06443020475176
H           10.85519904934831        7.51377771289745       13.47539764568635
C            9.16405476131103        8.81535187880404       13.23792827214375
H            9.61692788266594        9.63194194671305       13.78767557229924
C            7.89095953906214        8.96066803386357       12.70108229859787
H            7.34909587133747        9.89079890925412       12.83204885482396
C            7.30968944202819        7.92145122438935       11.99551452895006
H            6.31838956901101        8.03371990559742       11.56972567932861
C            3.34207653355706        5.92307057748087        8.35237199552975
C            4.49179230899733        6.16982620128131        8.01565720599597
C            5.83347528945367        6.42519542149201        7.64325205769845
C            6.44093260512372        5.66572000114226        6.63490539549805
H            5.86358614012593        4.91036161073178        6.11669389312002
C            7.76872601710915        5.88296487453521        6.30530775761675
H            8.23086314244331        5.28766053577800        5.52625589881083
C            8.50484589457323        6.85256821985428        6.97347740397210
H            9.54403720268497        7.01803690448801        6.71514552389955
C            7.90960197330974        7.60622859150569        7.97767204141905
H            8.48443406938269        8.35843634020380        8.50583947824442
C            6.58440588709854        7.39556466170048        8.31571283335743
H            6.12051625257229        7.97480578114575        9.10469619525185
C           -0.53976795766353        6.32983424589519        9.60941566980985
C           -1.43823902184102        6.37322722985779        8.77265486908417
C           -2.44543078727428        6.39238763145384        7.78178361311532
C           -3.79862119466285        6.46769071199441        8.13265670880657
H           -4.07552707596650        6.56166857287964        9.17599966145752
C           -4.77117858265832        6.41213582757029        7.14852156001112
H           -5.81774058125551        6.46471137253890        7.42540740935461
C           -4.41169393617782        6.28336921901360        5.81303090600264
H           -5.17725681243237        6.23403500945552        5.04779487518444
C           -3.06978147191472        6.22063512477872        5.45843893300867
H           -2.78642904601261        6.12368665785935        4.41625061420981
C           -2.08856070856685        6.27669625420090        6.43218881120204
H           -1.04020089613633        6.22150647541951        6.16102760987302
C            0.61201387088797       -4.43379885990589        5.38039655290079
C            1.08184596907463       -5.47815976067378        4.58002122553007
H            1.88122608978078       -6.11640528842364        4.93844377773509
C            0.53112783391048       -5.69939658246782        3.32642530267587
H            0.90532855061090       -6.51080717613732        2.71310955692357
C           -0.49567632913381       -4.89031109952116        2.85832126350463
H           -0.92220534959844       -5.06720974846695        1.87803550073414
C           -0.97180419458599       -3.85137830775250        3.64667151814032
H           -1.77086416392245       -3.21237715812258        3.28787736880370
C           -0.41685139389040       -3.62202983403753        4.89495191954007
H           -0.78327740858523       -2.80369336751927        5.50528881463434
C            2.96003979063283       -4.75541106428100        7.04265550169171
C            3.43507008632451       -5.56147122048229        8.07814020288547
H            2.76129900546168       -5.89505297611453        8.85872055165091
C            4.76807325092232       -5.94292173128845        8.11748791868924
H            5.12104521798596       -6.57026503324881        8.92767129580911
C            5.64603084187775       -5.52172636092253        7.12956025124010
H            6.68806061386164       -5.81640752184811        7.16493685668373
C            5.18498026451308       -4.71954581097830        6.09362916828663
H            5.86469263412243       -4.39038783942597        5.31625314424641
C            3.85458265733072       -4.33304493619989        6.05162715077260
H            3.49955830620711       -3.70806126806687        5.23956881832767
C            0.33758797420052       -5.11373268291057        8.17842536210262
C            0.47570456256040       -4.88179930169073        9.55033536638610
H            1.12863540194767       -4.08856645515134        9.89691490386446
C           -0.22070757531110       -5.65015856659380       10.46972468614991
H           -0.10019394636941       -5.45946450625750       11.53004648544676
C           -1.07581655907649       -6.65215588791309       10.02968631987347
H           -1.62744602515584       -7.24823745970952       10.74697080098451
C           -1.22455991787634       -6.88656201643930        8.66963867906709
H           -1.89024360375838       -7.66813782814154        8.32240474483356
C           -0.52223539534555       -6.12636745898716        7.74683594112244
H           -0.63866737409775       -6.32280826244542        6.68730498302773
C           -1.64083452461255        0.26063358766334        3.09927856378162
C           -2.26047764850431        0.75324916196000        1.94747003297575
H           -1.69056202866784        1.33828541840753        1.23461455832463
C           -3.60374239506353        0.50361355029759        1.71512019918791
H           -4.07415863657034        0.89334974825343        0.81994547871226
C           -4.34322475060614       -0.24358997060774        2.62218001894295
H           -5.39232291800641       -0.44087590356174        2.43596207804673
C           -3.73805490804237       -0.73285134678171        3.77152278823539
H           -4.31160307769075       -1.31071688451477        4.48675147114429
C           -2.39696984845163       -0.47714586822943        4.01326837374391
H           -1.93257821301909       -0.84501591893384        4.92207723397943
C            0.51649683955733        2.13030220802379        2.71968287135330
C            1.68611771745695        2.36626996918799        1.99589333089840
H            2.32094860386585        1.53476549509802        1.71294984988736
C            2.04321772159728        3.65710076786430        1.63527064969525
H            2.95506735476625        3.82342917427409        1.07343105062860
C            1.24444021441870        4.73100707417501        2.00130786466437
H            1.53090112854597        5.73969959755084        1.72825324451185
C            0.07739945020389        4.50999284240734        2.72198511679168
H           -0.55369866530005        5.34376851444944        3.00738914710570
C           -0.28359393389680        3.22108241131655        3.08322532277568
H           -1.19722782768004        3.05374491983781        3.64273813859448
C            0.94575512912187       -0.72847624675276        2.37002007321026
C            1.64031090593202       -1.77439988016731        2.97977346194386
H            1.70913161032280       -1.81105583523942        4.06167367199979
C            2.24183274844896       -2.76411613845968        2.21877748573616
H            2.77490867792954       -3.57061856002869        2.70929632032284
C            2.16412844218932       -2.71628933894888        0.83437991295100
H            2.63951571653690       -3.48548482626473        0.23727960786435
C            1.47809255081432       -1.67905709920309        0.21540605586358
H            1.41598361773415       -1.63882890333636       -0.86579897397661
C            0.86684056988366       -0.69403420924600        0.97439230318817
H            0.32554201563543        0.10627239579102        0.48272802318077
Au           0.92991088259583        0.94235276996028       10.77877492454326
Au           1.98586768928405        3.60818397498439       11.15128332679372
Au          -0.48168387714972        0.30997506034184        8.21860507424551
Au           3.79201501528990        1.24168610740457       10.34277502173725
Au          -0.79367080293858        3.08870718037119       11.26064996000327
Au           3.46099248314585        4.03505806260879       13.42678605980985
Au           2.91505979537671        6.15734506235971       11.67244800649696
Au          -0.18073495492447        5.90731956654583       11.57585218155487
Au           0.49217219089931        3.35564068110638       13.97080584658367
Au           3.03125830281023        1.05609439578273       13.16259986241601
Au           2.80916639985312       -1.62127974636728       10.05820300679268
Au          -2.44205671761907        1.00702726194927       10.17525996163759
P            3.00127380282848        8.50592426338417       12.10580693957584
P            4.14978217577498        3.93319439418889       15.70808729621391
C           -0.12843048032179        5.41479112867484       13.52455021828047
C           -0.37489650215611        5.38482240115747       14.73762803698365
C           -0.69995991386264        5.63749848663049       16.09681834124534
C           -1.28366052352767        6.86005186140186       16.44980843301610
H           -1.49799052814078        7.59224710236727       15.68057810488528
C           -1.58617605428364        7.12632259757339       17.77428219828210
H           -2.03830322728965        8.07464475904811       18.04047503299392
C           -1.31213236432189        6.18605642554826       18.75977127808011
H           -1.54704792220629        6.40114393191069       19.79529451654435
C           -0.74194105183142        4.96718645702284       18.41473978332600
H           -0.53234227276833        4.22774038161708       19.17892898565902
C           -0.44175421059685        4.69182794542562       17.09206468716728
H           -0.00743121361527        3.73813132956249       16.81528812883903
C            1.05996880349453        1.43343279055301       14.07126006424512
C            1.06787151111532        0.20403222784971       14.20261957103696
C            0.85106615764397       -1.17811336998450       14.43917384648899
C           -0.26713000588689       -1.58301119774376       15.17811503239840
H           -0.92883953982556       -0.83525699802344       15.59883905526523
C           -0.52315349564443       -2.93098070679475       15.36168160781042
H           -1.39461399998967       -3.23861686007736       15.92778288329943
C            0.32775291144162       -3.88652336207378       14.82065784437454
H            0.11894071783023       -4.94038739064485       14.96150846461488
C            1.45011083406477       -3.49042606311957       14.10424820115188
H            2.12060146422221       -4.23306088746019       13.68720989248544
C            1.71432463213849       -2.14516852112994       13.91723420500841
H            2.58778596082008       -1.83149649960660       13.35631944787933
C            4.92132450750541        1.15777934102770       12.50427679867582
C            6.10774273906090        1.39209042388979       12.34378192079499
C            7.48003677126519        1.66638151160451       12.12677768731741
C            8.21285678172340        2.39381497745459       13.06894336595765
H            7.73486812270027        2.70439368482981       13.99038802483523
C            9.53563161355398        2.71723884137640       12.81841590417935
H           10.09871363843579        3.28022900376361       13.55426774182086
C           10.14012185977753        2.32386921062045       11.63088613344170
H           11.17394982223439        2.58379066232824       11.43688333931980
C            9.41998001084468        1.59389567991142       10.69377571779350
H            9.89079598737172        1.27940916058152        9.76967806396818
C            8.09679848933635        1.26256340743272       10.93616526730334
H            7.53622635443119        0.67691548081812       10.21770825660453
C           -2.71236147893533        2.06681701853376       11.90289100248656
C           -2.96668205232979        2.37627033609973       13.05920831041172
C           -3.21438966981487        2.74942498715608       14.40262585961079
C           -3.95355473881938        3.89873678291192       14.70656959686302
H           -4.38232638258749        4.48502487056121       13.90227527661284
C           -4.12648364940315        4.28276309793157       16.02531298138316
H           -4.69732313195500        5.17501262765860       16.25594491999323
C           -3.56992244225764        3.53145083607969       17.05313192715711
H           -3.70693744401543        3.83702229533521       18.08381666076275
C           -2.83301376808664        2.39030896071507       16.75959588211463
H           -2.39696565005654        1.80452335755257       17.56105009410960
C           -2.65202986779308        1.99910192512615       15.44416985434455
H           -2.07946633672069        1.10875482714452       15.20960969197204
C           -2.56972155159335       -0.30113478339734        8.62768290768646
C           -3.10665462813209       -1.21307974888679        8.01670440733172
C           -3.71818396156996       -2.27505870066121        7.30959044925447
C           -5.00255958706908       -2.13627898193743        6.76932179620686
H           -5.54314844037697       -1.20791341533131        6.91367725192978
C           -5.57811323909987       -3.18560295912370        6.07087017071029
H           -6.57506630610586       -3.07533102665106        5.65989278387626
C           -4.88389481998849       -4.37685844077547        5.89740112563694
H           -5.33674864864292       -5.19347515615280        5.34767571086337
C           -3.61079730043649       -4.52212947957931        6.43424839914519
H           -3.06891392324878       -5.45225236052949        6.30330073414884
C           -3.02955892933597       -3.48289168184245        7.13981923230385
H           -2.03825204470592       -3.59513248539047        7.56559840754931
C            0.93805792079222       -1.48450651114643       10.78313765109507
C           -0.21171363113631       -1.73131918878739       11.11965975071599
C           -1.55340944808530       -1.98666322897661       11.49204919231848
C           -2.16088687843943       -1.22718451388899       12.50038221133307
H           -1.58355069263144       -0.47182716623617       13.01860473368946
C           -3.48868770728720       -1.44442730314385       12.82995965425279
H           -3.95083870136847       -0.84911974871508       13.60900134432199
C           -4.22479370514104       -2.41404197187713       12.16179190619932
H           -5.26398828892806       -2.57951542587438       12.42011061325991
C           -3.62953153501820       -3.16770682187093       11.15761068499697
H           -4.20434882627437       -3.91993777201230       10.62945910272758
C           -2.30433584567110       -2.95702723522971       10.81957429858264
H           -1.84043735611717       -3.53626235359689       10.03059191724763
C            4.81980006893317       -1.89155479965416        9.52586723912928
C            5.71830006853416       -1.93479256171742       10.36259342681323
C            6.72545535686131       -1.95386499630126       11.35349936627666
C            8.07864639131986       -2.02918795114681       11.00264929070410
H            8.35556314887828       -2.12317575796615        9.95930984091927
C            9.05118727528090       -1.97365145788535       11.98679912619550
H           10.09775167680673       -2.02623552269632       11.70992578126800
C            8.69168103083510       -1.84490028506625       13.32228531200301
H            9.45723202628870       -1.79558982486806       14.08753425811639
C            7.34976310844434       -1.78215597412340       13.67685648262418
H            7.06639587730010       -1.68522453571784       14.71904251236072
C            6.36855765506443       -1.83818975441772       12.70308896031851
H            5.32019454616144       -1.78300109643321       12.97423755066058
C            3.66809391834064        8.87230154389382       13.75489783065287
C            3.19827516112540        9.91665047766468       14.55529894041324
H            2.39889438312270       10.55490998270409       14.19690160164032
C            3.74900867873003       10.13786107087307       15.80889343858272
H            3.37482122834071       10.94926333897003       16.42222900701291
C            4.77581407630508        9.32876285576294       16.27697230455420
H            5.20235115336741        9.50563735861194       17.25725900192081
C            5.25193171558891        8.28984598527603       15.48859507895502
H            6.05099874678729        7.65083993633254       15.84736405388567
C            4.69696396754605        8.06052273679927       14.24031714812207
H            5.06338309595915        7.24219863310310       13.62996004398052
C            1.32006032306173        9.19392989080882       12.09262652685441
C            0.84504629001917       10.00006285525832       11.05718595405769
H            1.51882158577111       10.33367357374565       10.27662081168365
C           -0.48794731744816       10.38155278877325       11.01786380486593
H           -0.84091210683886       11.00893037026174       10.20770310539408
C           -1.36590913038739        9.96034335609515       12.00578153392626
H           -2.40793155636521       10.25505388384960       11.97042343128826
C           -0.90487314395458        9.15810452571058       13.04167444470318
H           -1.58458621682813        8.82895024148944       13.81905134046647
C            0.42551079771388        8.77155439477131       13.08364628567274
H            0.78053019972865        8.14655297920111       13.89569300854163
C            3.94252054778052        9.55225512610360       10.95686291228582
C            3.80437334442666        9.32033362565803        9.58495180543612
H            3.15142056009440        8.52710983500245        9.23838195247513
C            4.50078479365799       10.08868478216937        8.66555386017744
H            4.38025135842523        9.89799874736166        7.60523291511673
C            5.35592169582530       11.09066339491435        9.10558257910615
H            5.90755251327513       11.68673456487226        8.38829034962905
C            5.50468949555465       11.32506167651035       10.46562885730285
H            6.17039320914943       12.10662571304654       10.81285169773313
C            4.80236628086299       10.56487687640345       11.38844136814767
H            4.91881984771288       10.76131674152143       12.44797044436515
C            5.92089054286663        4.17785362192897       16.03600483731282
C            6.54054289313176        3.68522943943568       17.18780437992255
H            5.97063541310812        3.10020280223039       17.90067456030024
C            7.88381484745009        3.93484487858080       17.42013916434236
H            8.35423753557708        3.54510210176409       18.31530818077018
C            8.62330290868190        4.68203741210419       16.51307417957312
H            9.67240667230408        4.87930729772863       16.69927930148050
C            8.01812589758075        5.17130699699003       15.36373916525530
H            8.59167199009641        5.74916706773859       14.64850434215114
C            6.67703471459625        4.91561881548696       15.12200988386446
H            6.21264637512764        5.28349979646224       14.21320515501891
C            3.76353911887895        2.30822380570179       16.41562777387563
C            2.59392381864237        2.07226713039457       17.13942772166311
H            1.95910889398986        2.90377709635358       17.42239131531840
C            2.23680411406688        0.78143935154197       17.50004269804228
H            1.32496260153603        0.61512359556250       18.06189975422535
C            3.03555432683629       -0.29248129129078       17.13398682375589
H            2.74907251664911       -1.30117164859349       17.40702821644416
C            4.20260062754996       -0.07147896626357       16.41331619698488
H            4.83368077517064       -0.90526333190673       16.12789724333358
C            4.56361399689450        1.21743013555802       16.05208642901480
H            5.47724219565621        1.38474976779243       15.49255901884493
C            3.33431993467970        5.16701642800835       16.76528921012512
C            2.63976163364462        6.21294494246386       16.15554646557204
H            2.57092328145197        6.24960802701284       15.07364990666702
C            2.03825108347333        7.20266707623437       16.91653699561398
H            1.50517614088954        8.00916701621308       16.42601302245854
C            2.11597014041772        7.15484815671195       18.30093218488317
H            1.64059452542017        7.92405119287218       18.89803072442846
C            2.80200942945784        6.11761374115409       18.91990035146124
H            2.86413175002661        6.07739467977314       20.00110474156383
C            3.41324776754835        5.13258244482778       18.16091418432493
H            3.95454315063773        4.33227672881617       18.65258395401316
