349
 energy: -615.727199538702 gnorm: 0.000287534212 xtb: 6.5.1 (579679a)
Au          23.90966869082073        9.24518142196184       -0.00008104802938
Au          23.36321286437584        9.34646494962571        2.81875678074939
Au          22.35166481314590       11.59603638948745        0.85938330336230
Au          25.13738748498272       11.42467517289215        1.41270029936932
Au          21.19551686296293        8.66880672517135        0.74710388934285
Au          23.57644796943246        6.78727977068816        1.59387805281183
Au          23.96408533843909       14.19909942928442        0.73455356847030
Au          24.66254661265815        7.06747374969148        4.44619029719893
Au          21.04537965619202        7.10412483779917        3.40381565533699
Au          26.17892236806643        8.46723964675762        1.71454914297078
Au          19.15696780727666       10.82512259032206       -0.10560635154217
Au          23.08091819963886       12.24910206763879        3.83015038408708
Au          28.13232131154388       10.89817587928439        1.95481382534912
S           24.74474670713684       14.17532427279049       -1.48703860302987
S           26.86300866999199        7.80930946037043        4.05438943367205
S           22.86697560841271       10.27288530286984        5.11953283547925
S           22.49824225539971        6.38897938414432        5.13587952213757
S           19.22031285914047        7.77345002965229        2.04958245211139
S           20.03036524615732       12.46609463187476        1.33989974312979
S           23.37142157345487       14.45653865691414        3.01539935736742
S           26.88910151424572       12.80779236693547        2.60203471632592
S           18.02406676257525        9.18394312229802       -1.38707930901752
C           23.57088345917403       15.13955908719618       -2.35578507077575
C           22.57649375383791       14.56235579614874       -3.10740539110441
H           22.45405455393201       13.48731434292946       -3.09550050885411
C           21.71445714246248       15.33430640804876       -3.89982184670753
H           20.97446562723353       14.83593691900979       -4.51200401808352
C           21.81396607511586       16.69918325508248       -3.90649202331482
H           21.14855059815510       17.30020413462792       -4.51595542256990
C           22.79763946251605       17.34230035679975       -3.11877253537137
C           22.92054215587737       18.75154692438352       -3.10438636452532
H           22.22735378198375       19.33857994281743       -3.69792005412472
C           23.89354082912817       19.36612743641868       -2.36178647050796
H           23.98125188322130       20.44699850088042       -2.35737436852906
C           24.79026255112816       18.59452837697121       -1.60207222639708
H           25.56326622678677       19.09002220180339       -1.02591911798818
C           24.69423826828338       17.22732033878205       -1.59415403377114
H           25.39108606519214       16.63538910974971       -1.01401597490457
C           23.69874829951598       16.56000730020198       -2.34101363397635
C           19.69065605659781       13.97326563098204        0.51804501815813
C           20.65684423045022       14.64134727152921       -0.19405077808584
H           21.62976701862016       14.18755431311678       -0.32958135216193
C           20.41578296785826       15.90698361400924       -0.74817118652713
H           21.21885746728816       16.41809348337159       -1.26257920979151
C           19.18421960789156       16.49227708699673       -0.63173074593998
H           18.99253192355805       17.46958299873484       -1.06019756517842
C           18.14510411429115       15.82627981301504        0.05996713229858
C           16.86177214540688       16.40664368144169        0.19240368652909
H           16.67938227712586       17.37229308186920       -0.26765578317951
C           15.86881762198357       15.76912866169281        0.88776138748048
H           14.88816438354572       16.22171246175221        0.98514151009867
C           16.11910081168799       14.52134488846912        1.48528614185203
H           15.32970540392881       14.02976476690661        2.04224286196306
C           17.35178513440291       13.93300286312263        1.37179696815794
H           17.54371604995745       12.97543851838454        1.83951836119761
C           18.39661462872383       14.55707226337092        0.65558108269455
C           18.60539614509519        9.20940162760475        2.84169836447501
C           19.33399346445405        9.92997374948227        3.75936585345735
H           20.34046043252820        9.62006242976572        4.01294765047209
C           18.80294653385806       11.07112000510871        4.37675211680498
H           19.41365800415524       11.61198834129658        5.09086056833502
C           17.53312595432595       11.49463473051052        4.08318574160043
H           17.11678699741647       12.37361462616932        4.56282787709421
C           16.74950752744318       10.78837641561229        3.14053716943772
C           15.43813840829109       11.20378542507843        2.80650115400708
H           15.02359511636947       12.06953639354693        3.31244402354917
C           14.70341525613370       10.53265472059083        1.86530670758398
H           13.70455162393339       10.86782385389492        1.60833200214521
C           15.23877143754359        9.39821456460968        1.22891366835320
H           14.64855661395354        8.87334946452532        0.48631580025807
C           16.49423034618023        8.95448423901742        1.55141224731393
H           16.90605319112844        8.07564836164691        1.06854910444681
C           17.28884791791681        9.63620718991845        2.50197131209260
C           27.81497087500707        6.34138478231881        4.09121874715855
C           28.23172414539092        5.72185171769892        2.93822480421391
H           27.89278842263473        6.09329681244756        1.98010075791492
C           29.09554436660584        4.61743787861113        2.97030804508074
H           29.43581197861147        4.18799279174053        2.03729214037795
C           29.51052063849141        4.09559044347205        4.16542282879391
H           30.17657822694838        3.24064661029111        4.19523438722994
C           29.07735799238608        4.67555637146089        5.38104048308486
C           29.48811928152778        4.15434884806649        6.63040001291321
H           30.13134493352245        3.28054325409425        6.64152401758103
C           29.08800287671118        4.73815192000509        7.80299124309450
H           29.40840407348567        4.33259649061876        8.75633367369635
C           28.26006407489078        5.87410731840938        7.77570001307238
H           27.95740038804608        6.33489650276063        8.70900383857328
C           27.84381158544978        6.40019767484315        6.58050090340676
H           27.21234475543933        7.27966297344423        6.56257945763039
C           28.22962705795650        5.81986307625842        5.35231291628526
C           24.41221331520795       10.12349310863614        5.93041170045898
C           25.54239873124002       10.79135391514255        5.51957145564619
H           25.50196651820835       11.43774969915693        4.65133005986635
C           26.75983510768885       10.65020368897765        6.20023025545153
H           27.62709059868079       11.19152304855925        5.83925940088665
C           26.85125217391695        9.84269334901634        7.30364415285820
H           27.78980377758106        9.73524731277897        7.83616265959320
C           25.71614239061829        9.13136468195205        7.75858181093207
C           25.77768585052987        8.28124244439512        8.88878169189728
H           26.71579810858042        8.20284947407835        9.42835925568973
C           24.68099447408267        7.56949303424637        9.29714532729430
H           24.74360829255972        6.91137254392177       10.15682980930485
C           23.46208843956252        7.69249930035252        8.60598597202404
H           22.59961630078496        7.12580662368462        8.93808280225491
C           23.36306623184864        8.52934334280230        7.52570644987668
H           22.42270649056177        8.63247449515624        6.99637365530373
C           24.48090038781758        9.26174418348228        7.06334978092895
C           27.30098643827868       14.01329811516699        1.40015078398614
C           27.86917338032491       13.69961607253832        0.18733378877567
H           28.07203381564527       12.66532266972408       -0.06252901817235
C           28.19015139937910       14.69535601408655       -0.74588294014818
H           28.63252419436202       14.40329617665825       -1.69164772640251
C           27.94957004649018       16.01524616299185       -0.46659415379423
H           28.20143596427999       16.78877751474745       -1.18368142919559
C           27.36062617524507       16.38410162269338        0.76569741071216
C           27.08911584966626       17.73679261732448        1.08245243918057
H           27.36912223225829       18.50327759882829        0.36730156352502
C           26.48531660472882       18.07760853627046        2.26370614655107
H           26.27052152230778       19.11627034564665        2.48985249761935
C           26.14466068471399       17.08076298673736        3.19580529303938
H           25.66838215189843       17.36113173551509        4.12845589254434
C           26.42041813997483       15.76520611371100        2.93056532996964
H           26.16646336381608       14.99574655319278        3.65065867330537
C           27.02208767231120       15.37568905689103        1.71154926384007
C           21.81070018756656       15.23988612474990        3.02739121358296
C           20.73619091281981       14.65120247687044        3.65205300838781
H           20.85000113165868       13.67411752001251        4.10558933364469
C           19.48557526290965       15.28368149747450        3.70546324310110
H           18.66351511653824       14.78355228421015        4.20497661816263
C           19.30234011784830       16.50266812871837        3.10952659729130
H           18.33271677230829       16.98801876825850        3.12614402344099
C           20.37728781848620       17.14099429015831        2.44798916122743
C           20.19997591498207       18.38602741372047        1.79901612121278
H           19.21586615693692       18.84284741132153        1.81559948104519
C           21.24080198635233       19.00123705042401        1.15499428712959
H           21.09234242597077       19.94933029566035        0.65002608384793
C           22.51422743146592       18.40715860307385        1.15565133322625
H           23.33916416827173       18.90666702364330        0.66013067493698
C           22.71672954995918       17.20413790007027        1.77894132102222
H           23.70896031751924       16.77193305196893        1.79268383964026
C           21.65853403465437       16.51968164582034        2.41864322108841
C           17.52062533442975        9.97739658657137       -2.85907473568071
C           17.91872298156187        9.49756636067048       -4.08487881100660
H           18.58347060854523        8.64381087069996       -4.13537422560377
C           17.49229168879138       10.09821909325653       -5.27829954084986
H           17.83211048017212        9.69051303317850       -6.22366873944198
C           16.68104860531832       11.20066682146577       -5.24488085297015
H           16.36538777636195       11.68503596075415       -6.16235220327941
C           16.25425822963741       11.73377529686614       -4.00623582485537
C           15.44155014377257       12.89094942861830       -3.95006352890563
H           15.15333064247709       13.36674986360451       -4.88171655643551
C           15.03222152336137       13.40877696173096       -2.74970967487275
H           14.41963876218396       14.30294618972911       -2.71622891656328
C           15.39844648546369       12.77308273487526       -1.55124457975046
H           15.05699026628142       13.17628139217026       -0.60446437209139
C           16.18142692776609       11.64917885217708       -1.57472118090274
H           16.43383471671347       11.15649683892952       -0.64461363482516
C           16.65658388402755       11.10895473879467       -2.79122508818137
C           22.51177439271716        4.64271333408539        5.13387937450169
C           21.60925860282557        3.93596216554096        4.37408897736857
H           20.91037533576199        4.46810373180833        3.74026172711284
C           21.57994622908731        2.53390250024899        4.39056578330446
H           20.85452212746628        2.01515327284657        3.77405686406866
C           22.47500595158274        1.83354909694444        5.15411750642171
H           22.47430118772604        0.74911100021980        5.15482120837337
C           23.42696654092352        2.51903502164142        5.94436391821047
C           24.38057725056516        1.81310844756660        6.71572248401255
H           24.36974475870798        0.72847305356084        6.68608202408382
C           25.30469885856511        2.47817339968429        7.47746677254452
H           26.03929443450043        1.92874852199405        8.05575268308995
C           25.29688775344867        3.88268087880521        7.52033210810469
H           26.01865248826253        4.40423813613579        8.13887854934704
C           24.38312615685605        4.59273314536212        6.78710880979312
H           24.37342511936290        5.67319611846841        6.85062243595753
C           23.44068951438660        3.94314378294285        5.95806241765209
Au          24.45592183852814        9.14347728932173       -2.81875166290402
Au          25.46688630712205        6.89405990336319       -0.85962545219600
Au          22.68184976529120        7.06507288098922       -1.41287518204611
Au          26.62327600497638        9.82144887938418       -0.74765487567874
Au          24.24280736384867       11.70260476731694       -1.59371066239471
Au          23.85542480713012        4.29101460281751       -0.73431022519456
Au          23.15664003988955       11.42245764699075       -4.44645916830380
Au          26.77357726478631       11.38608440897609       -3.40375290432089
Au          21.63992150533888       10.02244836171243       -1.71399456852131
Au          28.66262202077195        7.66490858275123        0.10518551967314
Au          24.73812387955541        6.24094602229653       -3.83004772499901
Au          19.68681883355910        7.59192791400942       -1.95491269153356
S           23.07428459567225        4.31458012597729        1.48702988927043
S           20.95599717270438       10.68079378648545       -4.05449388844772
S           24.95183016836197        8.21699445825364       -5.11957552600961
S           25.32091345947019       12.10114087096790       -5.13605398635855
S           28.59876294175449       10.71635981771913       -2.04988158677821
S           27.78862311078896        6.02369507478860       -1.34004294290178
S           24.44755804570872        4.03342813368295       -3.01524987886434
S           20.92984016963816        5.68212118971716       -2.60202525461558
S           29.79517261444232        9.30612019595731        1.38696021496251
C           24.24818854425210        3.35048080480148        2.35586989110650
C           25.24255999642778        3.92775565905797        3.10746972124376
H           25.36498174584836        5.00279979400675        3.09549490183714
C           26.10462826190929        3.15585645935157        3.89991267503467
H           26.84461898713698        3.65426731272750        4.51206309353095
C           26.00515089820114        1.79097487028594        3.90664916697541
H           26.67057921356904        1.18999517600475        4.51614055087306
C           25.02148943029123        1.14779685168751        3.11896433926192
C           24.89861915960210       -0.26145355705733        3.10463603391529
H           25.59182703560374       -0.84844655866965        3.69818646617247
C           23.92563350511986       -0.87608726288053        2.36206176621399
H           23.83795074185410       -1.95696102041098        2.35768972868896
C           23.02889456832603       -0.10454021895924        1.60231394556720
H           22.25590254284024       -0.60007592391289        1.02618116585704
C           23.12488823029000        1.26267013263923        1.59433847702796
H           22.42802571968126        1.85456697998559        1.01418064066744
C           24.12036290226943        1.93003234634448        2.34117065437645
C           28.12835384467011        4.51662308115956       -0.51802943242889
C           27.16215589164236        3.84859500009535        0.19409432130646
H           26.18924894027102        4.30241490119836        0.32962529117836
C           27.40319657833502        2.58297505653345        0.74824895116437
H           26.60011154512579        2.07189768540328        1.26266996569186
C           28.63474445688417        1.99765119394813        0.63180824320079
H           28.82640959878980        1.02034927642591        1.06029064286583
C           29.67387454192875        2.66361160714333       -0.05990415135216
C           30.95719339695177        2.08322120762519       -0.19233879572535
H           31.13956114528362        1.11757187797397        0.26772771413400
C           31.95015503345793        2.72070165717856       -0.88771846264263
H           32.93079632125336        2.26809382358592       -0.98510186180890
C           31.69989483932278        3.96847748865393       -1.48526917904350
H           32.48929851092221        4.46003610676790       -2.04223310929581
C           30.46722309034347        4.55684493561066       -1.37178483200798
H           30.27531229474829        5.51441191831709       -1.83950990670898
C           29.42238816172991        3.93280658569656       -0.65554760998265
C           29.21347344494464        9.28027885790408       -2.84191734361399
C           28.48476965816569        8.55982825601232       -3.75959123464970
H           27.47832560885064        8.86986150396185       -4.01311543970427
C           29.01567497775696        7.41867458051706       -4.37707675987084
H           28.40487085976679        6.87790846951912       -5.09118280743349
C           30.28548139794904        6.99504583081151       -4.08362390257839
H           30.70171402953882        6.11605570265146       -4.56333808588686
C           31.06922658365804        7.70120170365043       -3.14100278493363
C           32.38060685105597        7.28569987930680       -2.80712569364871
H           32.79504146378081        6.41994528101020       -3.31315105866888
C           33.11546724615526        7.95674112204226       -1.86597508931565
H           34.11433313312870        7.62149311488999       -1.60911243069810
C           32.58024322452641        9.09118105212064       -1.22946934123992
H           33.17056895270761        9.61597680671756       -0.48691065976824
C           31.32477169155579        9.53499600585238       -1.55180702503244
H           30.91307127723631       10.41386095205178       -1.06889087181975
C           30.53001050026908        8.85335730884560       -2.50230541493660
C           20.00409223391051       12.14874937362885       -4.09125144531893
C           19.58729983262432       12.76820421896884       -2.93823281661500
H           19.92619661687334       12.39670060033833       -1.98011851004030
C           18.72350536293958       13.87263600879658       -2.97029407826190
H           18.38318538492335       14.30201593434599       -2.03726840655006
C           18.30859319372833       14.39455839428286       -4.16539949966371
H           17.64253821740652       15.24950362355797       -4.19519089536653
C           18.74181694460261       13.81467054099131       -5.38103381545049
C           18.33112699301122       14.33594980778150       -6.63038544497731
H           17.68790822438019       15.20975961569867       -6.64149339992821
C           18.73130410898739       13.75221178976528       -7.80298917280047
H           18.41096483357264       14.15782829878449       -8.75632604363578
C           19.55923453568178       12.61624957298546       -7.77572151573080
H           19.86195253671793       12.15551613554972       -8.70903493568224
C           19.97541580423927       12.09008657058726       -6.58053032432402
H           20.60687436187949       11.21061419850649       -6.56262261489174
C           19.58953420224682       12.67035790985473       -5.35233368986527
C           23.40656289679960        8.36642706445706       -5.93038610094584
C           22.27642365157971        7.69849255680241       -5.51954903647207
H           22.31691455072887        7.05205146798937       -4.65134346408536
C           21.05896199942937        7.83961411878251       -6.20016581386115
H           20.19174657010898        7.29822708230393       -5.83920053022457
C           20.96748020832516        8.64715302824044       -7.30355167859043
H           20.02890931789381        8.75457614900184       -7.83604033988431
C           22.10254661687665        9.35854736594198       -7.75849613437599
C           22.04094363800690       10.20867111399977       -8.88869202490846
H           21.10282219056550       10.28700856956044       -9.42826143395851
C           23.13758860495546       10.92049072515275       -9.29705866063590
H           23.07492542257793       11.57862148724494      -10.15673144803886
C           24.35650975591253       10.79754468305278       -8.60591669207614
H           25.21894814054154       11.36428472468547       -8.93802030072018
C           24.45559405581825        9.96068740618206       -7.52565261632068
H           25.39598235409884        9.85756351220210       -6.99636908500754
C           23.33780540895028        9.22822580980640       -7.06328227863398
C           20.51799902580464        4.47665504350226       -1.40008170321899
C           19.94982421882104        4.79039458290223       -0.18727569440854
H           19.74693837396490        5.82469724868411        0.06252715481081
C           19.62886831319789        3.79470456333617        0.74600003631662
H           19.18649764416112        4.08681404148711        1.69175034847122
C           19.86948136424014        2.47480405687275        0.46679148441728
H           19.61764755474761        1.70131129702138        1.18393140737650
C           20.45842398460776        2.10588689210719       -0.76548197667038
C           20.72997453810365        0.75318332477603       -1.08214819049212
H           20.44998002374223       -0.01326273199527       -0.36695109257870
C           21.33378307518972        0.41230729906364       -2.26337959251709
H           21.54859616748473       -0.62636414639032       -2.48946356017481
C           21.67440414424178        1.40910030495335       -3.19554677017776
H           22.15069383811811        1.12868503665095       -4.12817771727370
C           21.39859665503545        2.72466441965831       -2.93039871994116
H           21.65255437373791        3.49408434685325       -3.65053215273291
C           20.79691324348975        3.11424669099811       -1.71140828098443
C           26.00828747929822        3.25008935952105       -3.02734650330732
C           27.08277634518066        3.83878161468164       -3.65204509737203
H           26.96894187560193        4.81585856965836       -4.10559219694963
C           28.33340368698943        3.20632199841455       -3.70547821265976
H           29.15544270538495        3.70645221948664       -4.20502665536720
C           28.51667290971018        1.98734244384870       -3.10953697754025
H           29.48630114883919        1.50200117811346       -3.12617966280479
C           27.44175260751379        1.34901026946954       -2.44796179358202
C           27.61910345308319        0.10398579831113       -1.79898190482950
H           28.60321996415018       -0.35281934008427       -1.81559112966463
C           26.57830848792253       -0.51122852042289       -1.15491451749617
H           26.72680023153095       -1.45930985478044       -0.64993331399384
C           25.30487756910981        0.08283867479974       -1.15552791776054
H           24.47996514562527       -0.41667295138600       -0.65996995964497
C           25.10233810680138        1.28585002186412       -1.77882454833966
H           24.11009973545974        1.71803734672552       -1.79254479616527
C           26.16049808186515        1.97030731838312       -2.41858116516421
C           30.29854806797443        8.51261441285446        2.85894336369883
C           29.90050709262986        8.99246425230016        4.08475457655319
H           29.23575736411678        9.84621741883309        4.13526803215852
C           30.32699229627950        8.39182489157526        5.27816021586692
H           29.98722185142466        8.79954523556377        6.22353976788893
C           31.13823427305979        7.28937700950546        5.24471332758808
H           31.45394287478787        6.80502103866482        6.16217418376768
C           31.56496702314635        6.75625484180659        4.00605394873986
C           32.37767919094660        5.59908662823898        3.94985041943864
H           32.66594589601580        5.12329675903949        4.88149354575804
C           32.78695372678844        5.08125334130156        2.74948012251694
H           33.39954305815357        4.18708954811144        2.71597656589670
C           32.42067096337572        5.71693834696728        1.55102706594984
H           32.76209435729190        5.31373981354280        0.60423495409624
C           31.63768225338611        6.84083683439547        1.57453119470243
H           31.38522733862685        7.33351407477097        0.64443199783199
C           31.16257951718460        7.38105785517771        2.79105802919882
C           25.30738444812384       13.84740612056096       -5.13380332084560
C           26.20991193936270       14.55407068202760       -4.37394564593572
H           26.90877801102378       14.02186209607084       -3.74015628394996
C           26.23925997710736       15.95613224842942       -4.39031313141438
H           26.96469413519199       16.47481587825732       -3.77376123707982
C           25.34422709794236       16.65656901995993       -5.15382115470505
H           25.34496201958812       17.74100714648669       -5.15444513887012
C           24.39225510378107       15.97117030477923       -5.94412811698068
C           23.43867554307517       16.67718200528616       -6.71544712913202
H           23.44953737379628       17.76181455409182       -6.68572245864779
C           22.51454302708726       16.01220101954879       -7.47725172882924
H           21.77996905895666       16.56169029301703       -8.05550409826545
C           22.52231517845242       14.60769666183090       -7.52022248172522
H           21.80054061073540       14.08620836200287       -8.13881568600205
C           23.43604899551974       13.89756223089396       -6.78704300988179
H           23.44571511981064       12.81710212676369       -6.85063184113532
C           24.37849059863887       14.54706393014801       -5.95793257537131
