241
 energy: -609.593440082519 gnorm: 0.000700849373 xtb: 6.5.1 (579679a)
Au          -4.88096648017283        1.12755316064072       15.01025458142356
Au          -7.46977724422601        0.00020213560349       15.74591658446459
Au          -4.32281222642302        3.64163515084599       16.89806011695575
Au          -5.93862089722071       -1.15991424435423       13.63606080078334
Au          -7.28920399279649        3.45238979794064       19.28784354065446
Au          -5.16163426157427       -1.59836503816089       16.54885325491491
Au          -7.19792734919268        2.88945486127055       16.14331562800719
Au          -5.86339354036375        1.06485829979542       17.92213803475388
Au          -7.39663661219033        1.60784697805255       13.34925182158996
Au          -2.75197506070675       -1.03809590083944       14.64174878838395
Au          -4.51196277699216        1.02147536555798       11.92326382982730
Au          -8.98491461252818        4.35622790932330       13.84970721585228
Au          -4.80063281465452       -1.35633788485341       19.67273097990705
S           -5.16831317827447        4.45528839390075       18.95684307889909
S           -9.76114708915675        3.69393427975317       11.73743107467851
S           -5.48929769843245       -2.67211378569218       11.66552261092710
S           -3.38933663166024        3.15444624109730       14.79898669744116
S           -2.63504294225270       -1.68043007786244       16.89811782675309
S           -2.68093349468828       -0.39879220535286       12.37428993245446
S           -6.31913471730956        2.34406468696759       11.18466911110922
S           -7.99233431923796        5.26822034251653       15.77990055918721
S           -4.54723829128937        0.95671742751515       20.08487986447689
C          -11.26106283619596        4.49151554889768       11.34219438010600
C          -11.46564625514281        5.82234850375916       11.69779564542856
H          -10.73106732389792        6.33217022411127       12.30837276501154
C          -12.59546386214109        6.50379532164133       11.26811689998647
H          -12.75978406757864        7.53807732948603       11.54148089543533
C          -13.52693836734474        5.85287838620277       10.47792551261272
C          -13.33528032177628        4.51995855476328       10.13402377925787
C          -12.21202184314606        3.83735356905138       10.56099641433627
H          -12.07790285170536        2.80444695300110       10.26924878812352
C           -7.21752061218196        1.33814069807569       10.06826238950024
C           -7.11594264073364       -0.05002380774418       10.03164131662922
H           -6.43095167381980       -0.57560998993440       10.67996068173876
C           -7.90959943489728       -0.77818478108718        9.16725804495789
C           -8.79440656305036       -0.13750009816920        8.31030200219363
C           -8.89263058157819        1.24323807507443        8.32570501185549
H           -9.58670215870621        1.73414282485005        7.65587688785079
C           -8.11072524871868        1.97677234520555        9.20772647793554
H           -8.19382023765074        3.05566148680719        9.23864701099035
C           -1.16139209167232        0.38719036647742       12.02925274777076
C            0.01877337758765       -0.11292899576642       12.57406740562990
H           -0.02363033708061       -0.92580970753086       13.28821246992517
C            1.24804092049516        0.41188832316114       12.20152009561101
H            2.16831312245996        0.02826767309748       12.62263003295952
C            1.29868251860929        1.44062661938835       11.27698481874227
C            0.12230001216970        1.95431523398014       10.74399242846883
C           -1.10464233079824        1.43702001028431       11.11517558813015
H           -2.00628293465038        1.84600816397531       10.67941411769929
C           -2.09515313457260       -3.34266353970867       16.96034184417799
C           -2.77423676236111       -4.39511633505089       16.35481308843005
H           -3.64952676543117       -4.19225821325170       15.75072140800543
C           -2.33065463230763       -5.70221137688663       16.50789612036377
H           -2.85748137813659       -6.53013983129306       16.05297208922467
C           -1.19498837886172       -5.94924381499712       17.25649406045342
C           -0.50187372670718       -4.89844458066419       17.84630543660649
C           -0.94615640083473       -3.59737207343025       17.70858583266326
H           -0.40583504629216       -2.78906777042286       18.18414283790974
F            0.16622291335036        2.94437808851629        9.85897198704566
C           -1.72734647390929        2.65867651813901       15.01861372027808
C           -1.32669415518282        1.65252537131217       15.89275921714848
H           -2.05278928289598        1.18260908833285       16.54369758901222
C            0.00372131137542        1.25540973460129       15.94754279116442
H            0.32369576652755        0.45958984394894       16.60643380350768
C            0.93439143372809        1.88497314939607       15.14214291478351
C            0.54252487805369        2.91235056913739       14.29182322736490
C           -0.78206253239412        3.29716844714329       14.21682193962994
H           -1.07900614593653        4.08342894495893       13.53547694945077
C           -4.38355216245149       -3.87944108391683       12.27630713449395
C           -4.78615769175537       -4.97419648419237       13.03713761563049
H           -5.81951911748607       -5.11624037180817       13.32300208526627
C           -3.84830788201436       -5.89880493836056       13.45360412219379
C           -2.50602851701877       -5.74316502265561       13.13651895419155
C           -2.09428660219055       -4.65585161854420       12.38583060706556
H           -1.04544238045859       -4.54056698894205       12.14493564858041
C           -3.03428578025407       -3.73272798343462       11.95369368661615
H           -2.72315705780496       -2.87900736013595       11.36473933466328
C           -5.47985420184512        6.14930252223084       18.67260387467424
C           -4.51301503598109        6.92093606390816       18.02843805887212
H           -3.59661435623966        6.47601534665275       17.66491690201300
C           -4.72691365818179        8.27368603736808       17.84998944301127
C           -5.89607377485787        8.87335079400272       18.30245858984176
C           -6.85751347574837        8.11673048722494       18.94781325077546
H           -7.76606031214764        8.59042080841017       19.29616005899516
C           -6.64237931221564        6.75918393962054       19.13454551019566
H           -7.38911859362358        6.16729602457119       19.64730155609266
F           -7.82945083157038       -2.10874777899366        9.18313400490016
F           -9.55940901134380       -0.84540217323466        7.48258004969162
F            2.47353742464162        1.92877017481789       10.89545423277022
F          -14.59862112384117        6.50726554908038       10.04507100391099
F           -0.77982223937673       -7.20157573515448       17.43178127777168
F           -6.09725398246907       10.17439337226898       18.10616237453018
F          -14.22760950286428        3.88817802447677        9.37888515071211
C           -6.68552484789510        6.17712314097577       15.04326232195199
C           -5.69446465396799        5.58452351717485       14.26347624154597
H           -5.70023257953538        4.52279478160814       14.06060353346028
C           -4.69267931613817        6.36812387611451       13.72090911074864
C           -4.66533357575293        7.73860308046152       13.94674349319882
C           -5.64917276731875        8.33489425522224       14.71566954513745
H           -5.61694701641633        9.40316819498663       14.88651405424354
C           -6.65826737903984        7.55232354522836       15.25967523848706
H           -7.43496000276694        8.00877140894752       15.86010347725473
F           -3.80796260731215        9.00021002360208       17.22005556026119
F            1.44110703551441        3.51307841837439       13.51878454948288
F            2.20439322070002        1.48890785631640       15.16519494697765
F            0.58446214749322       -5.14389732050618       18.57014468692761
F           -1.61067533748518       -6.63016095082908       13.56834734249730
F            0.24638097167993       -0.26013196972613       18.85827630321224
F           -4.24577342398018       -6.94229596057958       14.18391982239860
C           -2.87549218351492        1.32451841380209       19.74174893311098
C           -1.94239967410133        0.34338038056427       19.41740924445520
H           -2.23025559589621       -0.69427048362633       19.32492518828487
C           -0.62561453611509        0.69300469780507       19.19145141551764
C           -0.21753187976367        2.01637011519239       19.28379077794679
C           -1.13262508655663        2.99799652420000       19.62415851955707
H           -0.80480820438792        4.02647194215909       19.70318519462034
C           -2.45432368803175        2.64953267551335       19.85739569212739
H           -3.17090613805377        3.41146970503488       20.13630317473153
F           -3.75025769238551        5.79502402434141       12.97739333012093
F           -3.69708625066137        8.48103489450669       13.41883507646683
F            1.04769787328553        2.34746612985471       19.03558858804360
Au         -10.05990120023059       -1.12761332600911       16.48100712900934
Au         -10.61773875693843       -3.64107661951927       14.59444677484450
Au          -9.00040496089985        1.16063183240411       17.85601733139247
Au          -7.65001071088400       -3.45280951770815       12.20471542740898
Au          -9.77836088113173        1.59891751694037       14.94254546079541
Au          -7.74082703821652       -2.88911606721664       15.34831563678926
Au          -9.07576123453492       -1.06480721116001       13.57046860285185
Au          -7.54242447199272       -1.60779624547212       18.14304437064561
Au         -12.18728754741948        1.03815183242546       16.84967479820674
Au         -10.42705908335673       -1.02144354755111       19.56822642843314
Au          -5.95558192398355       -4.35654899672290       17.64234761951406
Au         -10.13782668635554        1.35630072041426       11.81998320556306
S           -9.77102600915421       -4.45525075930435       12.53648882148403
S           -5.17865294954818       -3.69397054049699       19.75429092474232
S           -9.45017844885652        2.67120197860665       19.82618374029433
S          -11.55038690657708       -3.15407362724249       16.69409586795826
S          -12.30397101840480        1.68073610025327       14.59296112582756
S          -12.25814200221287        0.39877913971732       19.11748100472467
S           -8.62022923908123       -2.34410081541977       20.30710269660123
S           -6.94708295639073       -5.26808410795766       15.71167765221329
S          -10.39225068893410       -0.95633892026365       11.40701090291550
C           -3.67871506391974       -4.49142266179718       20.14974262686752
C           -3.47408030383377       -5.82229315387299       19.79430247612286
H           -4.20860779061983       -6.33219493258583       19.18373169810663
C           -2.34428656368247       -6.50368596965748       20.22413721339399
H           -2.17992172024571       -7.53798922993178       19.95087023143956
C           -1.41288201450428       -5.85268818580188       21.01433815728339
C           -1.60459681288890       -4.51974180343732       21.35812642689814
C           -2.72783986983747       -3.83718255195542       20.93099527090319
H           -2.86201940262538       -2.80425453008355       21.22263870835043
C           -7.72161232165061       -1.33820027987299       21.42335423942416
C           -7.82309967182993        0.04996856900333       21.45989425741380
H           -8.50797770849718        0.57555318369435       20.81145108526283
C           -7.02948347548091        0.77813424077256       22.32431244269840
C           -6.14481159103273        0.13744320211814       23.18140868118802
C           -6.04668651536015       -1.24330302634465       23.16610599838962
H           -5.35267522282793       -1.73420968512343       23.83599844656981
C           -6.82857202275133       -1.97684487507809       22.28406578839709
H           -6.74554214498022       -3.05574087452225       22.25322637735461
C          -13.77768711317947       -0.38717353357180       19.46249735672475
C          -14.95792469121756        0.11294386938075       18.91782097834477
H          -14.91562537019387        0.92581019088033       18.20365357104917
C          -16.18714276745842       -0.41186797354715       19.29054175230793
H          -17.10747333690633       -0.02825631992840       18.86955053905469
C          -16.23765695232415       -1.44057557582382       20.21511933207533
C          -15.06120347425624       -1.95425083740673       20.74796285544059
C          -13.83431928554526       -1.43697338297765       20.37659714018300
H          -12.93261603224552       -1.84593450360670       20.81225259685342
C          -12.84445095296296        3.34282756674486       14.53152295003668
C          -12.16530827591610        4.39521661790883       15.13710395559229
H          -11.28986305794234        4.19226483016575       15.74094281920611
C          -12.60896751548563        5.70232886306539       14.98434759746296
H          -12.08212785539431        6.53017678914717       15.43940240728357
C          -13.74471195220468        5.94947240978669       14.23590396568375
C          -14.43784601400914        4.89876297547856       13.64596152777019
C          -13.99351811580931        3.59766310209964       13.78339838750517
H          -14.53388097666993        2.78945309311746       13.30772707442326
F          -15.10499932500566       -2.94428758353332       21.63301816692956
C          -13.21236324400053       -2.65833173327603       16.47410358091980
C          -13.61304916798791       -1.65232942857007       15.59977175822524
H          -12.88692417599212       -1.18234789329404       14.94891614770423
C          -14.94355422845794       -1.25548554821870       15.54463976619979
H          -15.26355401214569       -0.45980759726702       14.88558423766794
C          -15.87429904927685       -1.88515322844639       16.34987501908077
C          -15.48239559756078       -2.91230366234649       17.20044876692170
C          -14.15773868848090       -3.29683191961806       17.27581186446078
H          -13.86082299333346       -4.08290585937883       17.95738327182712
C          -10.55577858638285        3.87895470034878       19.21607424941568
C          -10.15299311068581        4.97353385108680       18.45508280728874
H           -9.11959644851833        5.11527937917866       18.16921293315042
C          -11.09064628160373        5.89825334284450       18.03847851426786
C          -12.43294984281567        5.74285655669400       18.35558778153146
C          -12.84488614318539        4.65572127403136       19.10642110954839
H          -13.89374787329110        4.54068298043285       19.34735529136836
C          -11.90506682930562        3.73245960389375       19.53867070297110
H          -12.21634157930861        2.87883543368510       20.12768698655042
C           -9.45978007112734       -6.14937187160295       12.82027278628157
C          -10.42652043863401       -6.92100447314132       13.46457813826486
H          -11.34279336854692       -6.47609582372649       13.82844990325779
C          -10.21266752608888       -8.27380120193862       13.64273285879671
C           -9.04365471226509       -8.87348518704886       13.18990249346842
C           -8.08222961133658       -8.11680526596801       12.54459373751637
H           -7.17375177186515       -8.59045303413026       12.19602082815039
C           -8.29732475550362       -6.75922729600588       12.35815024697566
H           -7.55061472555117       -6.16724269249239       11.84546648711441
F           -7.10949377156813        2.10870326132189       22.30828323975863
F           -5.37983454585362        0.84534426170463       24.00915625968122
F          -17.41245794286372       -1.92871066562055       20.59682647788330
F           -0.34120969109141       -6.50701955457198       21.44730864677851
F          -14.15993079816550        7.20182856453518       14.06088205349829
F           -8.84258790341646      -10.17460025623259       13.38580981255358
F           -0.71232921357244       -3.88788617968421       22.11327524575414
C           -8.25370666302149       -6.17692048798363       16.44873694182166
C           -9.24484991888039       -5.58435538560202       17.22844687928520
H           -9.23927724113639       -4.52260428888442       17.43119539643024
C          -10.24655261365890       -6.36804353091340       17.77106630070087
C          -10.27369221846225       -7.73855782114829       17.54542569176988
C           -9.28979666490542       -8.33480180858343       16.77653567982579
H           -9.32184741145211       -9.40310230630239       16.60583286167356
C           -8.28084050628923       -7.55214022187131       16.23241167346194
H           -7.50411875654492       -8.00850828401822       15.63196399375647
F          -11.13154598575673       -9.00038500626246       14.27270550361369
F          -16.38103497508223       -3.51312193354484       17.97335543038073
F          -17.14439979073272       -1.48942923725160       16.32641247729579
F          -15.52428319849618        5.14433761598430       12.92230553801194
F          -13.32814977119778        6.62994262868453       17.92361401392835
F          -15.18579950125960        0.25988357793928       12.63371569821948
F          -10.69296760774813        6.94159594888174       17.30807611301751
C          -12.06387066961169       -1.32458509055161       11.75028048902327
C          -12.99702736724913       -0.34351471428663       12.07453277926134
H          -12.70926493878727        0.69418899623073       12.16676090531847
C          -14.31373182038478       -0.69323955143289       12.30070983920241
C          -14.72165402407799       -2.01667634143351       12.20872995401159
C          -13.80648442885490       -2.99826103589068       11.86843389462540
H          -14.13420010957766       -4.02678468322796       11.78961094718221
C          -12.48485535118597       -2.64968475710976       11.63497223319863
H          -11.76823175947111       -3.41160808417564       11.35613698315893
F          -11.18906547253673       -5.79501195234907       18.51451394211035
F          -11.24177872772877       -8.48107900958356       18.07349888758497
F          -15.98679407497119       -2.34787639048832       12.45723703517890
