385
 energy: -719.959848545962 gnorm: 0.000656925900 xtb: 6.5.1 (579679a)
Au         -15.52254019410094       20.24593761023377      -10.46562121138068
Au         -17.53891733698711       19.87256271238750       -5.87215241668526
Au         -16.62806143524967       18.24094295112106       -8.66167297741400
Au         -16.12014785035518       17.66046677883423      -11.44743680140901
Au         -15.37595465729023       16.95911741880855      -14.32538345693413
Au         -13.98987255601111       20.37296177911936      -15.36286603019056
Au         -14.46134865776486       22.18278132242230      -12.41003855144391
Au         -15.12822185106376       22.88831780096291       -9.66007366340097
Au         -16.18914704117679       23.37283787218105       -6.62896486244648
Au         -15.15259646674335       20.56652039012170       -7.49662908526139
Au         -13.83114820730066       19.07436343784867      -12.61469708160561
Au         -17.55009028024106       21.61490966086057       -8.77132380228580
Au         -16.28354759993246       19.92007529573130      -13.41346677554266
Au         -13.79013040452801       18.11792977150509       -9.63311689029184
Au         -12.86536276383704       20.81971635079760       -9.23065294959027
Au         -18.42486011284430       19.66080715341026      -11.06453574121459
Au         -17.33851252090543       22.21525384457858      -11.62911793663269
Au         -11.79269749567560       19.61259760304536       -6.80407778679733
Au         -10.90163515410038       18.64490261627151      -10.23298836789098
Au         -20.39106952710209       21.43411936767149       -9.60417689022169
Au         -19.59886242314227       21.18995017687101      -13.37594445199921
Au         -14.85659256907709       15.81624447853605       -8.13574617440126
Au         -12.87309069915453       24.25550200631241      -10.90854215434245
Au         -18.10951226799758       15.97869303793727      -10.14432195538765
Au         -16.26954202480542       24.73237529926742      -12.66691774976024
S          -17.53937617335322       17.57329380560385       -6.43421033934409
C          -19.22928494101487       16.99888241979641       -6.69603165493784
H          -19.16769071758514       16.09937076215204       -7.31104081397347
H          -19.61180971192534       16.72194782268404       -5.71299929109122
C          -20.13962826986890       18.01835628039306       -7.36175664303645
H          -19.64416768022411       18.40290623923967       -8.25841053585740
H          -20.26782826471442       18.86938251104679       -6.68397381825315
C          -21.50446128096428       17.50127550373380       -7.74440853574627
C          -22.15792334058945       18.07775961446522       -8.83342493520906
H          -21.65332504813512       18.84753970079265       -9.40720158993212
C          -23.43178551772200       17.68891923399226       -9.20329052939137
H          -23.92061491082218       18.14543888613847      -10.05621365289450
C          -24.08455044411653       16.69917615849275       -8.46591656548216
C          -23.43942102280846       16.10032552291192       -7.38432282945681
H          -23.95062516408086       15.33044516829046       -6.81907216502977
C          -22.16190829343089       16.50390178599869       -7.02782698456553
H          -21.68464661165861       16.03627395826713       -6.17421650319870
N          -25.38544619090948       16.27948595057400       -8.76905146991580
N          -26.00500098279675       16.81448674854176       -9.66019685919039
N          -26.72917566600855       17.19288222786543      -10.43148222389960
S          -16.18997493354569       15.42976224367242      -12.72007213053582
C          -14.69495370535500       14.62242415357267      -12.10277426280751
H          -13.94078277321005       15.35972795829001      -11.82530916795609
H          -14.98953097459051       14.07987743374051      -11.20322395217246
C          -14.13981983603883       13.66357172940624      -13.15197648462352
H          -14.86520184317981       12.86086130798783      -13.31759623613268
H          -14.01998176581325       14.20160039911741      -14.09690511575455
C          -12.81358428876430       13.08895340159963      -12.72328249316052
C          -11.68688060483861       13.25665938143398      -13.52474444806587
H          -11.77251016062949       13.79147382287078      -14.46494276237029
C          -10.45945671658894       12.73330693104245      -13.15238702105805
H           -9.59143208965721       12.86351457274810      -13.78789560360834
C          -10.35188775165422       12.02316282024566      -11.95621621943933
C          -11.47172787702916       11.85241741506347      -11.14216258732740
H          -11.37734324732177       11.29758899781600      -10.21659788216747
C          -12.69016594051854       12.38455975720301      -11.52574886794352
H          -13.55753638246671       12.23836120757970      -10.89122297525688
N           -9.14403813802490       11.45584651965352      -11.53250877496889
N           -8.14198835714614       11.58512589721152      -12.19998926546899
N           -7.12203808095035       11.60590709135074      -12.66990080842731
S          -13.52109992758503       22.58366767568727      -14.71104910403737
C          -11.73283619125839       22.70919584155699      -14.52849966057985
H          -11.30543435460155       22.59834216670905      -15.52544657303947
H          -11.52765316125294       23.71947833283973      -14.17150021933316
C          -11.14524900328647       21.68951489387677      -13.56406294834251
H          -11.32520539695299       20.68291741894044      -13.95929181206067
H          -11.68469680998933       21.75123506730155      -12.61340475687613
C           -9.66851325139323       21.84661153070575      -13.29412316931121
C           -8.77746757489909       22.36881204295015      -14.22968505982245
H           -9.13385395833264       22.72535496371351      -15.18921966582350
C           -7.42057003845689       22.44120247257881      -13.95391114674230
H           -6.73238273852139       22.84432105203933      -14.68695976339814
C           -6.93191815233088       21.98856477627477      -12.72948727336488
C           -7.81527391883524       21.47776558017321      -11.77662667607536
H           -7.44349129921839       21.14185866507193      -10.81589446584320
C           -9.16405419430082       21.41230015702836      -12.06856539871686
H           -9.84630567075941       21.02257150616946      -11.32123132096060
N           -5.55343120231004       22.06466302186800      -12.49679244239304
N           -5.10020306478452       21.70396281949199      -11.43384745627295
N           -4.50900303580356       21.41684528335781      -10.52265789911546
S          -13.57917404385340       20.45072309055898       -5.51525837363493
C          -14.09440476445939       18.94479490023912       -4.64848260755183
H          -15.17655450269180       18.98086236918619       -4.51808582100257
H          -13.85043769171194       18.06865377888893       -5.24911875263866
C          -13.42373792585963       18.85875058469713       -3.27613361290038
H          -13.84276882760935       19.63302348800771       -2.62711400871641
H          -13.66481431499822       17.88306116757505       -2.84087071560924
C          -11.93091551899270       19.03387584130424       -3.36785066500863
C          -11.13982092299020       18.09221548056418       -4.02731240913504
H          -11.59172946172395       17.19082740958367       -4.42595951098758
C           -9.77610131021003       18.29316993002429       -4.17179809676657
H           -9.16238023293052       17.56527485627966       -4.68846818243607
C           -9.18825408285700       19.44871610734218       -3.65714868084589
C           -9.96654669396029       20.38952950211655       -2.98222229136368
H           -9.50764625683566       21.28244308777677       -2.57466327376704
C          -11.32769988452417       20.17527394661749       -2.84636063079665
H          -11.93257199774359       20.91059204877098       -2.32632853742076
N           -7.81078710694266       19.62588430498891       -3.85304086581665
N           -7.27501569308300       20.65008130271047       -3.48898792103702
N           -6.61558533648542       21.52341053948503       -3.23722773412975
S          -15.05306687525927       24.83875520426398       -8.07781732034324
C          -16.24955673471857       26.04492042536087       -8.70328570048903
H          -15.93658889390287       26.30611272120612       -9.71533769795034
H          -17.24947694485961       25.61452471576442       -8.74536042289876
C          -16.25290347846596       27.29735165215422       -7.82425018146212
H          -16.93556820645392       28.02837957578542       -8.26949575195392
H          -16.62747245936303       27.03971292291968       -6.83063742013459
C          -14.86227557995910       27.86675637677109       -7.71996657008737
C          -14.04097208083724       27.51417134981789       -6.65114067290227
H          -14.42673432916415       26.87308116921724       -5.86614382479546
C          -12.73389038866926       27.96403838314410       -6.57896264958146
H          -12.10609872402580       27.68612972819929       -5.74101126506474
C          -12.22981714362125       28.77443592576741       -7.59715748186236
C          -13.04845300247980       29.15013570221856       -8.66253752746128
H          -12.65622827559732       29.80420378792872       -9.43192561024638
C          -14.35393308726857       28.69041465527233       -8.72171204231704
H          -14.98391908897227       28.97604022727411       -9.55736009672095
N          -10.90361554224259       29.22856627379311       -7.60202745387544
N          -10.15135862816901       28.92754812031343       -6.70278871377818
N           -9.31542324824482       28.75243758915728       -5.97251785800884
S          -19.69175686317521       21.21052720338922       -7.36612772009025
C          -20.14816751900814       22.73852403381413       -6.52623830671734
H          -21.20803706793656       22.67953072846684       -6.27559597211557
H          -19.57172968097382       22.77460780088279       -5.60083988725191
C          -19.87952097763691       23.99063197894358       -7.35268679449471
H          -20.54873655402890       24.00044597893806       -8.21788784998053
H          -18.85149070083482       23.95891421864962       -7.72752176955143
C          -20.07660895610287       25.22683016632358       -6.51822112994785
C          -18.99581106257546       25.80857858181728       -5.86152062595680
H          -18.01162006579016       25.36037442151535       -5.95452971009488
C          -19.15351176239434       26.94878324206232       -5.09394633998435
H          -18.30293233438040       27.39661614283325       -4.59372324176883
C          -20.42205540265450       27.52019672526838       -4.97200568959007
C          -21.51851238645265       26.93030149003244       -5.60099732298678
H          -22.49912774195850       27.37843438791142       -5.49631736867336
C          -21.34240979039176       25.78763496926384       -6.36175487721563
H          -22.19618476398397       25.33225224055839       -6.85128163052914
N          -20.64543532517213       28.68357051798194       -4.22740566562046
N          -19.72407605765689       29.24067247145689       -3.67335351552154
N          -19.00934944508457       29.89011739360838       -3.09991811540218
S          -18.11658424472924       20.34706133925173      -15.02348676521197
C          -17.57229428419658       21.82940600460407      -15.91037816971585
H          -17.64190569766406       22.69947979478293      -15.26003698788770
H          -16.52704814340047       21.69217143041721      -16.19071565286739
C          -18.41027218102078       22.03305079578723      -17.17142042738510
H          -18.15824888869406       21.24721832443372      -17.88668264189533
H          -18.13076500472052       22.99548830889408      -17.61365076080726
C          -19.89127352168541       21.99937261694141      -16.90120335110767
C          -20.66918767879831       20.96478609768329      -17.41470391198791
H          -20.20694985045538       20.19943003041512      -18.02938033258577
C          -22.02790787157330       20.89641024776409      -17.15635917581592
H          -22.62389892473793       20.08781414348137      -17.56257250061304
C          -22.62503624589493       21.88003153237673      -16.36630583045257
C          -21.85773115392442       22.92385981175557      -15.84792580255009
H          -22.33154462328814       23.68231224200493      -15.23652246722818
C          -20.49993374784796       22.97826929741816      -16.11580160274491
H          -19.90715750257972       23.79188429612319      -15.71202775823389
N          -23.99142104570118       21.85554436642157      -16.05164440054656
N          -24.68738661625157       20.94348619725773      -16.44113031215571
N          -25.47767366321428       20.18775462420342      -16.69689703499509
S          -12.98664936346460       17.00353257210408       -7.36344066478566
C          -11.59109949992416       15.88926428707426       -7.61405283429582
H          -10.68815011134270       16.49288974541478       -7.51400252716323
H          -11.60004744777194       15.14702715559785       -6.81502991421863
C          -11.58490474508544       15.18790469712770       -8.97110615264031
H          -11.78406554026607       15.92214229439243       -9.75731701356783
H          -12.38410519341392       14.44093629912862       -9.00459731119093
C          -10.24027390490133       14.54877815152944       -9.19466737493751
C           -9.92515594563167       13.33276800141061       -8.58924547359185
H          -10.67138149151353       12.82057552323139       -7.99159762985315
C           -8.66944550012595       12.77294700485536       -8.74389326963930
H           -8.42475504120509       11.82502576423893       -8.28074268254269
C           -7.70570438982081       13.42953425751112       -9.51030503105399
C           -8.00837821418032       14.64814557135274      -10.12063421653971
H           -7.26222686683027       15.15989965666657      -10.71691754576758
C           -9.26787546371072       15.19652640573335       -9.95152883664449
H           -9.49653140467516       16.15064617023038      -10.41569460616516
N           -6.45304601601873       12.82130960020183       -9.63942901077601
N           -5.58643569285603       13.34151111414514      -10.30718211316742
N           -4.67196250158652       13.66499351630121      -10.87266407032878
S          -11.37430862998951       22.71305486734066       -9.97355545974087
C          -10.82215556931547       23.39809758829404       -8.40572053087052
H          -10.30752716638436       22.59603538263135       -7.87711020358652
H          -10.09734385541078       24.18420484127523       -8.61745497686670
C          -11.94366017881076       23.94271818864408       -7.52639070932903
H          -12.72033799349409       23.18114569147386       -7.41655418178905
H          -12.39699289056271       24.81493862175776       -8.00742746645075
C          -11.38632330793913       24.31113728681000       -6.17973392709449
C          -10.59796166679766       25.45181391481015       -6.03787903465612
H          -10.41922700832630       26.09105861746927       -6.89575853442317
C          -10.03360965222532       25.78273678645172       -4.81719226826446
H           -9.43687202620763       26.68166062643212       -4.71714936382535
C          -10.24271190715825       24.94671331619483       -3.71891707613083
C          -11.01710104582884       23.79513039125449       -3.85531159214865
H          -11.16966664020019       23.15336295291206       -2.99748975669369
C          -11.58995366367831       23.48630051849401       -5.07630662401825
H          -12.20313134233656       22.59548572052155       -5.16855786315549
N           -9.70556641508937       25.22040596116344       -2.45547685458522
N           -9.00299514410895       26.19533550864540       -2.29132386614238
N           -8.34254084019729       27.03514231850537       -1.94859625205981
S          -14.30732607428780       25.82226101450165      -11.94256710480265
C          -13.47878215162410       26.26832897957819      -13.48813424000202
H          -13.07481409661740       25.37854329794702      -13.97111874251191
H          -14.22996255352009       26.70584694753414      -14.14420136188958
C          -12.37626970436043       27.29692624532337      -13.23180148289409
H          -12.82698799960727       28.18937372046047      -12.78934882995929
H          -11.94673894918303       27.57448882860758      -14.19986712047088
C          -11.29653543011571       26.77034893742045      -12.32515708142641
C          -11.29784970317707       27.10111780277173      -10.96997449577791
H          -12.07201002078481       27.74997459463140      -10.57758614123851
C          -10.31436738911196       26.62267121231029      -10.12141537662187
H          -10.30913935499387       26.89632991787322       -9.07328264318209
C           -9.31885804862026       25.78750295820203      -10.62454529876488
C           -9.31055046759779       25.43727567107027      -11.97527103595040
H           -8.53792032683594       24.78448703997728      -12.36420783933534
C          -10.29485148944113       25.93299152634439      -12.81424836390037
H          -10.27516589714237       25.67295602761304      -13.86720465259946
N           -8.35562081424646       25.31025893552939       -9.72335783434769
N           -7.45628779480840       24.60683646047831      -10.12468544764453
N           -6.56564093003433       23.94774233966123      -10.30790826275515
S          -18.36056985100476       23.92102514025624      -13.37344168891562
C          -19.57010273873206       24.91791420099191      -12.48089107244677
H          -19.58560267918745       25.91460526032655      -12.92260350752529
H          -20.54064217995077       24.44768109140056      -12.64389314500156
C          -19.28556246205954       25.01517367161190      -10.98653498153978
H          -18.29825005907296       25.46109341112297      -10.83717198027544
H          -19.25575910961438       24.00316613139077      -10.56837918860065
C          -20.33826329372451       25.82914797179397      -10.28429488579089
C          -21.64741077221138       25.35435741013557      -10.19761952621327
H          -21.89966431430388       24.39164049655090      -10.63099757786823
C          -22.62954776272471       26.09428877309366       -9.56241368799542
H          -23.64348228738680       25.71795206398474       -9.49646801007535
C          -22.30277632889983       27.33092844335847       -8.99957188962663
C          -20.99837828371160       27.81660047180874       -9.08542619515205
H          -20.75591415423111       28.77471869636333       -8.64210652848850
C          -20.02777157394003       27.06751865987859       -9.72795318525766
H          -19.01402071830709       27.44838012762964       -9.79221324939491
N          -23.24362272262131       28.11408322872358       -8.32103735986683
N          -24.38834485735874       27.73400465708326       -8.20813965775701
N          -25.47625178207918       27.55245999378097       -7.99736077735437
S          -16.53267688909804       14.50114637725655       -9.15164726307702
C          -17.36742554685254       13.63483467996376       -7.80094729987221
H          -16.59657623092886       13.23310899707979       -7.14458758485057
H          -17.98697943738560       14.32393488819491       -7.22776670072104
C          -18.21281065305713       12.48518435747848       -8.35192603441344
H          -18.67429407686221       11.96787149649401       -7.50442564176804
H          -17.55445701845346       11.78019948777540       -8.86647283114747
C          -19.27625105514624       12.97369530973934       -9.29822997461381
C          -19.09177037244758       12.86524720979473      -10.67625863016153
H          -18.19063509858447       12.40311751066598      -11.06297355537104
C          -20.05104843855695       13.33461277500670      -11.55760023178049
H          -19.90868558071639       13.24111768118999      -12.62696915644528
C          -21.21314290179635       13.92274060482109      -11.06316669190844
C          -21.40664040916268       14.04677939738950       -9.68719314152611
H          -22.30811049046382       14.50951689752825       -9.30347737868804
C          -20.43799620170376       13.57559556998709       -8.81683830576314
H          -20.59324073624808       13.67265409666930       -7.74753494264938
N          -22.15472886401657       14.39225528349979      -11.99334381443272
N          -23.21318387442261       14.83132450549622      -11.60127118592573
N          -24.23234176359338       15.26676995326271      -11.42131147837256
S           -9.97936077306687       18.78729300582193       -8.07988787184618
C           -8.75448488187620       20.10489877026580       -8.22079670404722
H           -7.93063298023482       19.71360592966223       -8.81758109813874
H           -9.17858926490769       20.96273822247262       -8.74225778884221
C           -8.26357128532047       20.51306274195398       -6.83495465552250
H           -9.12789544588845       20.64217966253452       -6.17715149491501
H           -7.64653180570903       19.71192149593529       -6.41757851418788
C           -7.49012010402751       21.80411560313496       -6.90536906847211
C           -6.30959851191426       21.89371150725130       -7.64180270404632
H           -5.91669532091580       21.01885620213159       -8.14859226798798
C           -5.63057887142877       23.09522951991713       -7.74145421955271
H           -4.72130054785247       23.16555085885671       -8.32578397008542
C           -6.13407126895405       24.23033144720175       -7.10580891130638
C           -7.30584528717043       24.14896244145475       -6.35315879210148
H           -7.69296790130549       25.02750875843983       -5.85110270153730
C           -7.97301700196821       22.93943054320632       -6.25932526891449
H           -8.88137430089346       22.87640496492960       -5.66960435726085
N           -5.43658071270525       25.43464336897016       -7.26249778412156
N           -5.87370698306601       26.45559292070008       -6.78029953314551
N           -6.12264044810518       27.49052729145804       -6.42113259103243
S          -17.26364686018809       22.06590170993217       -4.97852748151345
C          -16.03210923567862       21.94874393440002       -3.66628629574713
H          -16.39309528312606       21.20380512738920       -2.95819632891758
H          -15.07744194315330       21.60918621165016       -4.07513296955272
C          -15.85304545930328       23.30244812136790       -2.98603315955633
H          -16.76577251947055       23.55450406633817       -2.43547761541821
H          -15.71249218625337       24.07075075562732       -3.75271715165271
C          -14.66576935113853       23.30612482953188       -2.05198311733770
C          -14.42375238236997       22.24206409157037       -1.18332350642859
H          -15.10250002468818       21.39708848143001       -1.15284684399814
C          -13.32100268047143       22.24612608975312       -0.34599966330044
H          -13.13278540653437       21.41479137390736        0.32260466269522
C          -12.44702433832175       23.33336111504774       -0.35355363958259
C          -12.68884981668269       24.41472916702910       -1.20286458506972
H          -12.01117742596481       25.26039172152979       -1.20933496108529
C          -13.78616099131707       24.38699177568047       -2.04829823001028
H          -13.95851817729274       25.22287714418453       -2.71834424340367
N          -11.34343515657374       23.28623792990719        0.50500083231000
N          -10.55366918985531       24.20406957134297        0.54257643364146
N           -9.72452573453074       24.93917815814994        0.72427882448825
S          -14.53182234343349       18.21269118958403      -16.14188405754925
C          -15.96375616616613       18.45233904315024      -17.21468260865361
H          -16.42991918991687       17.47828160080341      -17.35753506568862
H          -16.69373784014502       19.11486117707298      -16.74576994581206
C          -15.49433084392071       19.02406372594631      -18.55122643228134
H          -14.89496642966716       18.26914327838950      -19.07005002805815
H          -14.84782571521533       19.88662484447748      -18.36473043029429
C          -16.66923879847513       19.44007375808808      -19.40112397664280
C          -16.76527718245314       20.74779470013429      -19.87342860917818
H          -15.97299784589346       21.45682509798943      -19.65766723855740
C          -17.85974953780224       21.16102432759461      -20.61738520025614
H          -17.92403261949273       22.18146617721392      -20.97612237881338
C          -18.88526623318247       20.25473947011524      -20.89044979611060
C          -18.79034096909768       18.93731350705602      -20.44120948832299
H          -19.58383320874346       18.23764593924187      -20.67491562417452
C          -17.68863382144304       18.53761696005669      -19.70537799117247
H          -17.62267692200666       17.50997294819129      -19.36482936620650
N          -20.03086859214423       20.61634181625787      -21.60784712364485
N          -20.17778170489887       21.75361087324510      -21.99575655455496
N          -20.49317299736236       22.74211450078618      -22.42623167946640
S          -11.45667371759149       18.45368105166473      -12.48260002389779
C          -11.30355308071754       16.70642983004290      -12.94026068806383
H          -11.17321785694947       16.08579888774622      -12.05546005672768
H          -12.21791135764015       16.40016330800550      -13.44756297111667
C          -10.10767199726156       16.54873741570722      -13.88539414930444
H          -10.00930359443096       15.49314680015181      -14.15446166362883
H           -9.19668647882648       16.86182865160400      -13.36940143792220
C          -10.34887242868804       17.39813720113139      -15.10473716232572
C           -9.83419064779426       18.69108027794359      -15.16610318958505
H           -9.14657706527803       19.03323374570739      -14.40094602892852
C          -10.21871589199767       19.55941288176007      -16.17374580808005
H           -9.82525905432758       20.56802633726882      -16.20742457813198
C          -11.13848939974583       19.13371587198287      -17.13237788330750
C          -11.59878255186043       17.81812497065134      -17.12644711210578
H          -12.29514749102233       17.49069276671901      -17.88811517500274
C          -11.21012003242651       16.96254415547484      -16.10939468876936
H          -11.60355305467965       15.95182785371349      -16.08243227633220
N          -11.65845761321750       20.01325983365908      -18.09772400899782
N          -11.40293719455629       21.19272594468286      -18.01831775530020
N          -11.28816655480536       22.30994357570865      -18.07005226500845
S          -19.72739129870483       17.53222825762833      -10.89620526284253
C          -20.26414044028332       17.12810898278740      -12.56736614544051
H          -20.96905428425523       16.30011283969636      -12.48460178927834
H          -20.80260200264806       17.99775000888659      -12.94626070689960
C          -19.14499100368274       16.75255479731357      -13.53358513037927
H          -18.61181616759508       15.88276716090983      -13.13875414538086
H          -18.43399346946554       17.58078145820757      -13.60364917599133
C          -19.70708694060295       16.43227261951263      -14.89398072323071
C          -19.59381473874094       17.33645746484712      -15.94696682017194
H          -19.07430707093850       18.27771774628439      -15.79839327834233
C          -20.13497386665989       17.05486460429555      -17.19022457031641
H          -20.04085238044372       17.76786469443900      -18.00097128302638
C          -20.80642378038179       15.84795475985540      -17.39068667507835
C          -20.92559709703441       14.93253362235994      -16.34403600953361
H          -21.45658813148914       14.00228936587553      -16.50559527535645
C          -20.38128326524543       15.23046943045072      -15.10703872803840
H          -20.48944715298721       14.52105679809766      -14.29423220144651
N          -21.38427343808580       15.50943682653998      -18.62056784064263
N          -21.35510904741137       16.28480680650753      -19.54740983859475
N          -21.43126373302182       16.86131174188917      -20.50975237558315
S          -21.25595172865642       21.80415558241129      -11.77031306828906
C          -22.49243706024133       20.49736072633474      -11.92934080780473
H          -22.03864872288557       19.53173811647243      -11.70642918977092
H          -23.27157945577522       20.68876575698477      -11.19228375571377
C          -23.07338417958930       20.48990018384911      -13.34262505656587
H          -22.28258526110102       20.75723243434328      -14.04758982081864
H          -23.85922294298966       21.24594627584299      -13.42511920037346
C          -23.59958758938427       19.12301823633865      -13.69227883279126
C          -22.94857693373356       18.35301307002851      -14.65372982298207
H          -22.08569627619823       18.75471181255206      -15.17551400433578
C          -23.39459392530521       17.07935480493848      -14.96321840495015
H          -22.88896975980078       16.48942108194653      -15.71716983021775
C          -24.49960828343517       16.55560907692566      -14.29264796554321
C          -25.16386619935772       17.31972681134328      -13.33388195613284
H          -26.01951845814383       16.90509546230975      -12.81531657540993
C          -24.71152550480832       18.59364914765088      -13.03825945155566
H          -25.22997730760996       19.18341747947462      -12.28999257094373
N          -24.96855480870982       15.25912449323052      -14.54320968030603
N          -24.37229241666533       14.53254155081632      -15.30383291781606
N          -23.95259257142410       13.71919488189896      -15.95682217063542
