277
 energy: -406.752441876444 gnorm: 0.000679919946 xtb: 6.5.1 (579679a)
Au          -5.73116761636908        7.27897370886527       10.51549629813081
Au          -4.68246112427717        4.93304080360054       11.76521200569277
Au          -2.83162930354706        6.76413848381914       10.03286595213582
Au          -3.83430072624292        7.52445392762786       12.85420541526907
Au          -7.74462704830204        5.18034233098195       11.47312509113023
Au          -4.73499713027280        7.21220337796652        7.85029424035312
Au          -5.66528723914724        9.82075796647865       11.85530060019469
Au          -5.75762203246690        2.24027039061277       10.76260080531724
Au          -2.41422647693462        3.60077229413238       10.25860749043565
Au          -3.77997272425412        5.23751831207038       14.74437005011827
S           -3.11996932323880        3.53854760705434       13.27846956015748
Au          -1.80801808028079        8.42337224034905        7.39376822563149
Au          -1.02057490289173        9.07513434302665       10.87330960745808
S           -0.79427597038116        5.32892549752495       10.34291615727751
Au          -5.12969329525290        8.68868518910309       15.28200487875386
S           -1.71797460205594        8.88672588108701       13.08845910841346
S           -7.56978669395462        2.78333127866383       12.15584171121569
S           -3.46703495448148        7.96060818507722        5.77248214033368
S           -5.49645199368009       10.73590675983096       14.18383363257563
S           -3.78656768137845        1.74798728694037        9.57084220266767
S           -4.43121091276140        6.75365650922749       16.44230101905839
C           -4.12876942139953        2.13120574567777       13.79371889070131
S           -0.02077952178174        9.17550805171745        8.75143408665955
C           -0.39935599090678        5.52867952309859       12.09912701596351
C           -2.21938456713259       10.53465509414901       13.64430407477499
C           -9.03496240607246        1.91367140528245       11.56045261421921
C           -4.18975228056379        9.60066848298011        5.52015092635427
C           -7.14441881910531       11.33753810124647       14.59537761875582
C           -3.06662266289669        0.29595000770456       10.38319255662660
C           -2.87078258486640        7.19713859575691       17.23608322091844
H           -5.11036146762791        2.46895445009358       14.12341775758714
H           -4.26866881482378        1.50419222848079       12.91271126867714
C           -3.42798766603174        1.35001582679945       14.89640467505753
C            1.14615474780728        7.79819389873600        8.81310428144559
H            0.31674557434356        6.35052056714388       12.15877856185435
H           -1.29086245186593        5.81437342552455       12.65820044352805
C            0.19406866526944        4.25904805127465       12.69412046371213
H           -2.83700500150132       11.02976043350280       12.89391848346796
H           -2.83170095651079       10.38080060822690       14.53308035357145
C           -1.01151053007311       11.39176670065393       14.01008755676551
H           -9.86984646558673        2.25348861863383       12.17562968751469
H           -9.23982739577821        2.17974589015369       10.52318828247657
C           -8.84726669405738        0.40984417835510       11.69884294440893
H           -4.81539472386210        9.51595135995733        4.63014285101607
H           -4.83483815549634        9.85604568656573        6.36296886366233
C           -3.14094760192403       10.68771964233789        5.33263723004601
H           -7.11191141944767       11.69387787547372       15.62593117814725
H           -7.33091921847409       12.18743878563038       13.93495795148335
C           -8.24613855368285       10.30212929857470       14.42998216301308
H           -3.44644229228887        0.20562723603613       11.40047223905664
H           -3.40649854612426       -0.57049593616316        9.81300195115820
C           -1.54541077949058        0.35133040958438       10.41048138327582
H           -3.02860127184133        8.12730913781038       17.78168534100677
H           -2.65318480657425        6.40555456349809       17.95493412261250
C           -1.72336113019825        7.34387253278193       16.24782392835095
H           -3.22914632129137        2.02385940201540       15.73520866432198
H           -2.46414661188117        0.98946888702849       14.52418053824615
C           -4.27352912159169        0.17139225658534       15.39405992485332
H            1.96792268312301        8.11142086981285        9.45808028018651
H            0.67458628638299        6.91763150506328        9.25769603931943
C            1.65911389432012        7.47212709608152        7.41854406670368
H            0.40568645034888        4.43640184542574       13.75459723966671
H           -0.55326182286529        3.46115382312034       12.63418224001302
C            1.47218378488768        3.82519059526512       11.97386309145838
H           -1.34573931635080       12.17989948183303       14.69393974481486
H           -0.28421047391096       10.77482610772134       14.54636157087926
C           -0.34955748262658       12.03661358762955       12.79303292538892
H           -8.00867734155424        0.09348498492745       11.06972484357681
H           -8.59054631338285        0.17278392511111       12.73601634523452
C          -10.11737972670201       -0.34309975809288       11.29093419353368
H           -2.43555287803629       10.64972970356175        6.16918651630594
H           -2.57669815334059       10.50148587017410        4.41456711797384
C           -3.78675472091349       12.07485440873810        5.29649917088504
H           -8.21631424484938        9.91374627586391       13.40659374774713
H           -8.06531822108532        9.46100304043808       15.10626900376688
C           -9.62891804536068       10.89631143769909       14.70101970701250
H           -1.23564105665715        1.25365836162503       10.94783371826647
H           -1.17371120294671       -0.51267019778231       10.97229371145053
C           -0.93649987127241        0.35495421432961        9.00662879350234
H           -1.55845039040328        6.38202786368026       15.74958891649735
H           -2.00419877792705        8.06354891811222       15.47435441903108
C           -0.42110997004737        7.80303232160845       16.90546502902732
H           -3.74791343719830       -0.29819893566795       16.23144951193654
H           -5.23016646911101        0.54637193794753       15.77275086094585
C           -4.53230874923785       -0.87878729907015       14.31420173621011
H            2.13701436652288        8.35640668780557        6.98615477913298
H            0.81124411234738        7.20879519186027        6.77836892745780
C            2.65210988219406        6.30666326164878        7.46638709863612
H            2.25350611348413        4.57672171659275       12.12906317370089
H            1.27383955012868        3.77066094775769       10.89791074944351
C            1.95666149548606        2.46579412092735       12.47166956446360
H           -1.06210738516145       12.71594558081136       12.31302939473277
H           -0.09147697514263       11.26096911038401       12.06323366840017
C            0.91203952027155       12.80621400920477       13.17245384470601
H          -10.95242467265958       -0.01228759339379       11.91729991183783
H          -10.36477129958397       -0.10042721787400       10.25189947106569
C           -9.93845249056575       -1.85295814680857       11.43291508821775
H           -4.30596882916590       12.24138221939213        6.24754996892739
H           -4.52847739082180       12.11739146439066        4.49236309189677
C           -2.74607041975349       13.17428686543693        5.10027213805348
H           -9.77900676237467       11.77163603602167       14.06080009859773
H           -9.68564589274782       11.22996792153373       15.74185373009199
C          -10.72922683731528        9.87516998748450       14.42700866153270
H           -1.08885576981666       -0.62396909860615        8.54047315944101
H           -1.45479475394785        1.09809265683182        8.39214939851410
C            0.55340783280152        0.68474535692668        9.04232178554329
H           -0.13796823046427        7.10494868616110       17.69984313675360
H           -0.57086348864907        8.78725651554483       17.36116209373390
C            0.69443447556532        7.88193267818140       15.86406035443514
H           -5.17274829420208       -0.48145867323476       13.52595395475563
H           -5.03002280372223       -1.74469820906067       14.75167467891445
H           -3.59378954428121       -1.20860139420280       13.86613851414889
H            3.50642947533616        6.58266345913620        8.09322764688468
H            2.16883009482393        5.43847815220624        7.92716044143905
C            3.14201999647161        5.93522663342740        6.06854804349530
H            2.16942564697551        2.50125838507103       13.54108684427358
H            2.86620059543742        2.17473112252585       11.94553537346842
H            1.19560973092264        1.70369966491372       12.29600499263451
H            1.35406933949561       13.26075532570076       12.28544251370761
H            1.64626906134164       12.13781809563369       13.62383650534377
H            0.67681635570135       13.59617989463099       13.88686535856501
H          -10.85274662995880       -2.36812116994290       11.13748655696855
H           -9.71057824876369       -2.11497090533016       12.46697262628788
H           -9.12229714914437       -2.20246974210086       10.79919474268018
H           -3.23048824835415       14.15120252879248        5.09754898849581
H           -2.22067234211644       13.04348993181076        4.15348102467388
H           -2.01366080615662       13.15261588030726        5.90870699347104
H          -10.71750265005793        9.57277021253203       13.37882997484295
H          -11.70578985852168       10.30449968775951       14.65125116881474
H          -10.58807535811332        8.98767962441104       15.04549809877753
H            0.96912121074415        0.65443991864157        8.03483011991536
H            1.09252583322262       -0.03208168834467        9.66312814291540
H            0.71045684575080        1.68422047245549        9.45071039828885
H            1.60669117166988        8.27494220982369       16.31294876053945
H            0.39734658270928        8.53534657950816       15.04126425572390
H            0.90436810819345        6.89248330544861       15.45480185503678
H            2.30382892650857        5.63892123412674        5.43635555294003
H            3.84391838751317        5.10295126249727        6.12618927030335
H            3.64500858628087        6.78280460638973        5.60123900989054
Au          -6.77896801328995        9.62523722234779        9.26626449094891
Au          -8.62897811436479        7.79426078618885       10.99877948884915
Au          -7.62711649425723        7.03373570454582        8.17800893318901
Au          -3.71600113847247        9.37881416021391        9.55806092238985
Au          -6.72632103682665        7.34693965279765       13.18102766766258
Au          -5.79617571183575        4.73797647674065        9.17669926514065
Au          -5.70419636261700       12.31847957882154       10.26888876520477
Au          -9.04754724591924       10.95681974611012       10.77262478459479
Au          -7.68092559818538        9.32148388553544        6.28664401604650
S           -8.34144287947839       11.01980268335985        7.75329464273977
Au          -9.65349271289800        6.13521999758182       13.63823182974247
Au         -10.44172303393512        5.48307786737834       10.15792890295773
S          -10.66773690263795        9.22904942734497       10.68770665142609
Au          -6.33209899979170        5.86936390344238        5.74900377442137
S           -9.74306263312635        5.67157132433852        7.94327381122978
S           -3.89187162114112       11.77514024892204        8.87601295114513
S           -7.99412030507773        6.59805485877651       15.25914601414044
S           -5.96467455981031        3.82249672393236        6.84787957405497
S           -7.67583035782418       12.80974250489452       11.46052196333122
S           -7.02987228016003        7.80481270766268        4.58893986269006
C           -7.33277400057361       12.42712399492438        7.23769295792511
S          -11.44032702979146        5.38262577860572       12.28047635349735
C          -11.06219038868373        9.02884879917291        8.93145060375350
C           -9.24184923300902        4.02361574281161        7.38734223615911
C           -2.42705078847347       12.64526536919801        9.47162559684138
C           -7.27142113701831        4.95799407225973       15.51152745608632
C           -4.31679755860054        3.22088019572124        6.43600583296199
C           -8.39564001435562       14.26191612452333       10.64827979362527
C           -8.59041349114021        7.36124274046355        3.79541233120121
H           -6.35097803791950       12.08951813902738        6.90844296174998
H           -7.19332462380134       13.05444256682494        8.11854879500000
C           -8.03330340417801       13.20791007075749        6.13454871649684
C          -12.60749842054207        6.75974096327700       12.21872421154493
H          -11.77825515988819        8.20698059677205        8.87173337361739
H          -10.17049337998796        8.74309091169035        8.37271817492965
C          -11.65539146688389       10.29841641729586        8.33612352265153
H           -8.62430404704170        3.52847958507602        8.13776242639726
H           -8.62945614065606        4.17744318597917        6.49861257638335
C          -10.44973229036010        3.16653695914301        7.02149279196215
H           -1.59201472019119       12.30580833118461        8.85645515587208
H           -2.22213285978505       12.37911927864189       10.50886125355859
C           -2.61509395450058       14.14907597276502        9.33345014550783
H           -6.64569433759493        5.04277025477731       16.40146805976335
H           -6.62642335077987        4.70252422594771       14.66867212903332
C           -8.32022427440542        3.87098080346421       15.69920956158430
H           -4.34943520791411        2.86459647548966        5.40543616822950
H           -4.13026838069388        2.37096184188207        7.09639008706484
C           -3.21510764914855        4.25632775533471        6.60137556123674
H           -8.01550529976966       14.35251134680880        9.63114141685537
H           -8.05608209706482       15.12829349642909       11.21876823374713
C           -9.91683479972268       14.20630661043227       10.62048921666562
H           -8.43263640234735        6.43113115768960        3.24970212696058
H           -8.80813294450865        8.15286682190391        3.07664746509818
C           -9.73779920686269        7.21438240746205        4.78368948820670
H           -8.23153466514864       12.53384608405626        5.29577997523827
H           -8.99743956204039       13.56819396211521        6.50626102781820
C           -7.18799326298964       14.38677091468070        5.63704122530414
H          -13.42935652773989        6.44629152150606       11.57396606425100
H          -12.13617227240860        7.64032145517465       11.77390861174193
C          -13.12021263726478        7.08591242254929       13.61335297430027
H          -11.86667020527645       10.12089113815427        7.27561203717716
H          -10.90807863409831       11.09632099902856        8.39617215180567
C          -12.93372251218256       10.73235778797828        9.05594155114423
H          -10.11546326973282        2.37831849044080        6.33775639522668
H          -11.17693242706349        3.78346576686322        6.48507206932136
C          -11.11188921632819        2.52184848822683        8.23852648616021
H           -3.45383706985637       14.46510302624837        9.96252835021096
H           -2.87177150455941       14.38624117939896        8.29629007954959
C           -1.34524218781242       14.90234031915666        9.74160402809228
H           -9.02570853907024        3.90893690161011       14.86273368621279
H           -8.88435997346459        4.05726216544025       16.61733948292882
C           -7.67438444684323        2.48386227098360       15.73533630566216
H           -3.24484510747320        4.64467029647018        7.62477589023340
H           -3.39597613960427        5.09748699830697        5.92514115366591
C           -1.83235427641913        3.66214858547080        6.33026573453099
H          -10.22629148469450       13.30398889873032       10.08293592312613
H          -10.28848875638173       15.07031054709602       10.05865327819834
C          -10.52619016831584       14.20243360654427       12.02414884218835
H           -9.90263650121688        8.17615153283491        5.28209156933040
H           -9.45691276716628        6.49458619396869        5.55702144101170
C          -11.04013249915217        6.75537876373681        4.12611060434246
H           -7.71336509874355       14.85596849790237        4.79927566347104
H           -6.23100772826702       14.01210281548198        5.25892489725736
C           -6.93019944929173       15.43730145296642        6.71679488677289
H          -13.59787584500594        6.20160802440180       14.04595498862787
H          -12.27224653212835        7.34945875573948       14.25331597435108
C          -14.11342749856371        8.25119773277373       13.56560117493649
H          -13.71500809742538        9.98082533594480        8.90056487179049
H          -12.73571927581708       10.78698988123834       10.13195252833996
C          -13.41801013813805       12.09170981960059        8.55783300767573
H          -10.39942119495693        1.84256925434293        8.71872842140050
H          -11.37011150555857        3.29756796462594        8.96819152650774
C          -12.37341402580578        1.75219067239884        7.85896852859137
H           -0.51003810721472       14.57188647074493        9.11526137787635
H           -1.09787279318468       14.65955585561568       10.78061763506181
C           -1.52457465614028       16.41217722319808        9.59988501384695
H           -7.15532973269688        2.31727470536668       14.78420887406452
H           -6.93252391494048        2.44138835698010       16.53934894941762
C           -8.71502548316265        1.38443675874175       15.93181651152578
H           -1.68221298634055        2.78682761180863        6.97048092126975
H           -1.77570552190676        3.32850209925258        5.28942597283507
C           -0.73205993960764        4.68332409470699        6.60420599373141
H          -10.37415182692783       15.18133678097488       12.49045126342957
H          -10.00795747051392       13.45932388156241       12.63871518239338
C          -12.01602908744387       13.87238135971271       11.98796776574250
H          -11.32326177630488        7.45356427040554        3.33181881788655
H          -10.89046801943645        5.77119298235413        3.67030475601818
C          -12.15562211693277        6.67646123268171        5.16757108574406
H           -6.29005322089744       15.04039514191080        7.50549305227743
H           -6.43256330277183       16.30329720636703        6.27940106328856
H           -7.86909096985144       15.76686979137640        7.16425781125999
H          -14.96784797608427        7.97498139001162       12.93899266877616
H          -13.63040564933223        9.11941414983799       13.10461737754428
C          -14.60308710475764        8.62272143888711       14.96350742972747
H          -13.63039203758719       12.05613773346730        7.48834334517764
H          -14.32773498597876       12.38283174058116        9.08361366401136
H          -12.65701198575371       12.85381244770762        8.73369342971845
H          -12.81559024387736        1.29773260708973        8.74595006117560
H          -13.10757731904655        2.42053060328028        7.40739416135729
H          -12.13806484708177        0.96215336824353        7.14467698543080
H           -0.61045299616995       16.92755381608216        9.89547767486975
H           -1.75244352845416       16.67431085086734        8.56585720339302
H           -2.34088069756041       16.76133971323680       10.23360328161449
H           -8.23059587722185        0.40752703759413       15.93454310336392
H           -9.24027214818160        1.51530881069355       16.87868085142154
H           -9.44756396683457        1.40603637734616       15.12349662270291
H           -0.74368164465608        4.98568427388964        7.65239792208671
H            0.24448627688882        4.25401908930614        6.37984913621098
H           -0.87328582381053        5.57083505871471        5.98576187530064
H          -12.43204791894846       13.90249237738718       12.99533931249110
H          -12.55509404446427       14.58918534313959       11.36708866460149
H          -12.17278184456608       12.87292604677241       11.57941645572296
H          -13.06792271060838        6.28351563026455        4.71871484143141
H          -11.85850172278197        6.02299053348075        5.99031027919332
H          -12.36548285373442        7.66589818579920        5.57689876196322
H          -13.76480189155669        8.91923903310511       15.59547499186067
H          -15.30513251719503        9.45487789496558       14.90592758803194
H          -15.10583541378694        7.77512189654329       15.43103623263077
