427
 energy: -690.874473163665 gnorm: 0.000609777779 xtb: 6.5.1 (579679a)
Au          15.45214868196560       -0.36756338974969        9.01242970849609
Au          17.95414629711136        1.20152053190616        8.51242442472603
Au          15.97663991867296        0.94392977110687        6.34486070675029
Au          13.23975464748917        1.10845290290599        7.54909371574685
Au          13.59002080317008        1.57135760746817       10.48030043852057
Au          16.46865481945416        1.57646984977759       11.06701830548176
Au          15.44346426133827        2.44163217427143        8.63248912940396
Au          17.69924694045113        3.89482390596590        9.82098778880814
Au          17.49807031755305        3.48179441442171        6.80073874569828
Au          14.47524447093322        3.42995463511110        6.05955069780005
Au          12.91801941925065        3.82332218238506        8.56790964889418
Au          14.91227454858742        4.12537075330371       10.99711129897145
Au          15.57504173363656        5.27216142430773        8.28346997277857
Au          17.93253270216001        6.93687466516962        9.28955505019719
Au          17.57515659710505        6.43841708140975        6.34072627187030
Au          14.57481042453893        6.37480137432062        5.67134306642278
Au          13.00519906448288        6.87625622218212        8.31172965038394
Au          14.98098274085015        7.20426412039676       10.50159804972376
Au          15.61395141620131        8.08007626214760        7.82033576713796
Au          18.14890501045424        9.13074111867065        7.29711043837384
Au          16.11139800126609        8.77775980549489        5.16395671468535
Au          13.43190358000575        9.01563031487719        6.39119873034776
Au          13.83996070534709        9.64063644728096        9.30721762904618
Au          16.75565778110152        9.52696884320893        9.87879983601917
Au          15.69148975707863       10.85661425621402        7.31636787052066
Cl          15.64141607266382       -2.81111103867662        9.21137679948654
Cl          15.80023152132028       13.24716196492657        6.86960016040263
S           18.55607647732899        5.66333971308097       11.32196216800436
S           19.53683817666197        4.92655482769099        6.64801000839321
S           15.09273456131823        4.62474636387205        3.96390041829967
S           11.01355209610799        5.39826666949099        8.26963015878154
S           13.93535783984208        5.95782097550774       12.38281538101781
P           20.06373380188502        0.10315816883450        8.25273706590972
P           16.19769017055891       -0.31306129673913        4.31982106163308
P           11.47310805363467       -0.34337372058776        6.79619943318142
P           12.06109381647007        0.73209930136627       12.10960140094736
P           17.52682266418866        0.68313415475306       13.00159403856152
P           20.29147202521118        9.92816808346550        6.59738957202429
P           16.35921745471594        9.56504248855503        2.91925200176296
P           11.43891717990955        9.90931416329856        5.42274916422310
P           12.45842673362998       11.12171149293897       10.59794696760798
P           17.81726730262022       10.75587083666239       11.63023320492093
C           21.51634761900723        1.16675205104753        8.50625078229395
C           21.32713171975019        2.49571812629406        8.88729125621327
C           22.40253043719515        3.36453973426046        8.98652474265445
C           23.68730546650229        2.91103063103244        8.72248185420178
C           23.88960282785271        1.59009664100347        8.34386357088674
C           22.81327417431522        0.72564176728661        8.22345237759693
C           20.22082373179860       -1.38596313979599        9.27280921409829
C           21.32554954356228       -1.70643059550704       10.06142887801377
C           21.31174421799219       -2.85113327297414       10.84550294962870
C           20.20054841938031       -3.68278990979220       10.85816446588688
C           19.09386158867123       -3.37054693668852       10.07920196758372
C           19.10423042681354       -2.22909924879517        9.29661841241523
C           20.35772986401533       -0.45280879445469        6.54332740018418
C           20.51114761598570       -1.79014961545793        6.17948278374480
C           20.76081202789725       -2.12927573300833        4.85769215017930
C           20.85274563161449       -1.14398502897571        3.88535222184835
C           20.69041387091430        0.18996832952863        4.23683556435002
C           20.43664565255586        0.53265274772206        5.55388641206847
C           17.10983605701153        0.59126645058977        3.02952242657161
C           16.99139595123487        0.29361220825468        1.66866750199479
C           17.68058702817118        1.03750942785657        0.72380782748383
C           18.48981223329685        2.09397397811336        1.11936531912077
C           18.60492440932202        2.40669331070287        2.46674997465770
C           17.91870486523073        1.66174929438073        3.41168269922084
C           17.02089323185339       -1.91589964429723        4.53931844717151
C           16.96324928968712       -2.48979225935457        5.81155165734823
C           17.51506466826569       -3.73645015147993        6.05575478548204
C           18.13718320991966       -4.42836180760186        5.02557322205595
C           18.21810515661796       -3.86051223718901        3.76006667214658
C           17.67018273197772       -2.61002053657984        3.51496710903708
C           14.63812566228798       -0.68900260791381        3.45513956826973
C           14.44179266888015       -1.84225340055168        2.69290686546231
C           13.27062090603077       -2.01320932191318        1.96982585346939
C           12.27627235315403       -1.04547401938106        2.00767552240921
C           12.45083231545613        0.09218642363589        2.78402623970195
C           13.62301614843727        0.26901976977722        3.50016440551695
C           10.39142537892343       -1.04070819705462        8.08765547181855
C           10.71247748431064       -2.23857529430934        8.73067730251018
C            9.89626288019713       -2.73760445623603        9.73286347196451
C            8.76303068317117       -2.04006219464352       10.12705814483371
C            8.44413794593287       -0.84041917721641        9.50682707205208
C            9.25154714662148       -0.34242234622416        8.49620677949473
C           10.30048861559306        0.48911298767160        5.68544696234052
C            9.10892195335399       -0.10451494892910        5.25499325910887
C            8.23429090003685        0.59279573207466        4.43649162185154
C            8.51939170527592        1.89733662235434        4.05504838725499
C            9.68569910081262        2.50659953695797        4.49656351255104
C           10.57046543402080        1.80329929999835        5.29876628952122
C           12.10416676939462       -1.83613622558165        5.97072271821832
C           11.49463846041916       -2.45948972939876        4.88148101659535
C           12.01046613634340       -3.64414242824099        4.37696765633325
C           13.13613371542494       -4.22233652464770        4.94796603996252
C           13.75686818898334       -3.60467866662163        6.02457996428261
C           13.24777124657106       -2.41852030855547        6.52519195435595
C           11.95918737438518       -1.08003580517807       12.17372020582599
C           11.02433253183812       -1.76575913983060       12.95647659215333
C           11.03534342443840       -3.15076900966132       13.00139986669332
C           11.96817377288847       -3.87163799348797       12.26424623066869
C           12.89123637009264       -3.20175242792406       11.47367904523502
C           12.88450514887485       -1.81752527637023       11.43435605638425
C           12.46393348984704        1.23073775995702       13.81072478617933
C           12.36236082607232        2.58642807845283       14.14020303023116
C           12.66449968052565        3.02508327459695       15.41812557259689
C           13.10041843655445        2.12075665252574       16.37929407679356
C           13.24147679364919        0.77998694902758       16.05127990954618
C           12.92672876951580        0.33504696316596       14.77560590096375
C           10.37102176898717        1.36637075724686       11.88646058750870
C            9.43118164886722        1.40100531909589       12.92064020491950
C            8.16367402812259        1.91528184377116       12.69780916751911
C            7.81841680061393        2.41209556730804       11.44769781185298
C            8.74787760390376        2.39548606224854       10.41701076157822
C           10.01306601130345        1.87500160147926       10.63686478063508
C           17.39713245565964        1.78729026711592       14.43645657204762
C           18.43526346114874        1.97255791872269       15.35246564192804
C           18.29912479795259        2.87971329850412       16.39220665766919
C           17.12838700331226        3.61135358599302       16.53143436985083
C           16.09184117188436        3.43580283557231       15.62486653219585
C           16.22588422171208        2.53587056938440       14.58190743144423
C           16.76635885207365       -0.89223011108037       13.47084702591201
C           16.08949460195002       -1.09531086353037       14.67402123484407
C           15.42526971679883       -2.29196849149006       14.90421059813914
C           15.42379466628774       -3.28975075945226       13.93904820008544
C           16.09555795961074       -3.09540369584476       12.73872461879077
C           16.75765688575283       -1.90347874813176       12.50390487233267
C           19.30956971407230        0.35692879888289       12.86557052645478
C           19.93580976873765       -0.69109470969139       13.54464938352633
C           21.31338843596016       -0.83707155872172       13.48625637443661
C           22.08204857073123        0.05895029320333       12.75504372325146
C           21.46654543678913        1.09155672044282       12.05994357566551
C           20.08926512811921        1.23387144951408       12.10839014090953
C           20.65648934765572        9.86216057272886        4.81401176152680
C           20.05884584879063        8.86739091580825        4.03771862842162
C           20.40535606238112        8.70909714443266        2.70508711655926
C           21.34263074565928        9.55336830860658        2.12550347983628
C           21.91951836267878       10.56592120590532        2.88046193001899
C           21.58260432724238       10.71962346696187        4.21633812526784
C           20.64878931148697       11.63534535069360        7.09019342506416
C           19.57629423142254       12.53235883681888        7.07365739063971
C           19.76199030304017       13.86063892877014        7.41644678148247
C           21.01913746183510       14.30826913353097        7.79930912563598
C           22.09105899085481       13.42605403669564        7.82208283560488
C           21.91364351968191       12.09831721463611        7.46305262527370
C           21.59590612178253        8.86876126368525        7.28918563658547
C           22.03919987667495        9.06278234427988        8.59979911816066
C           22.98618083024471        8.21527940275469        9.15238498231533
C           23.47478350094670        7.13971810022024        8.42166132510266
C           23.00227736749160        6.90821382536281        7.13742375406368
C           22.07280922224611        7.76700883957576        6.57343463370835
C           17.02237139629420        8.34772186374801        1.74259704496405
C           17.18223235924230        8.63240240026894        0.38294378066832
C           17.63481121274235        7.65396458894054       -0.48820676325899
C           17.90932494804919        6.37398066742791       -0.02380770638275
C           17.72817916629374        6.07270892635370        1.31884222664683
C           17.29384766578825        7.05555866445277        2.19571523038886
C           14.77243846127423        9.98815470763653        2.13323218815159
C           14.45218691641269       11.26534655840643        1.67399763605119
C           13.22409177230843       11.50328437285381        1.07450836018300
C           12.30286552154422       10.47586618841536        0.93074039501998
C           12.60977528988473        9.20249002778848        1.39330716998386
C           13.83200341975522        8.96182213233807        1.99726930110140
C           17.35547728843230       11.07687723716203        2.85588157194848
C           17.02398674595385       12.05931166468603        3.79604300468088
C           17.77335446014211       13.21664447667073        3.90969820303692
C           18.87366688528293       13.40904588736288        3.08443464302010
C           19.20985319059049       12.44401522285861        2.14521452068874
C           18.46041184071464       11.28193301353992        2.02999186470509
C           10.53048883272068        8.76024695784093        4.34339547919684
C            9.18666169992911        8.95636577121730        4.01035441629425
C            8.51465560673616        8.03019109786298        3.22871936078958
C            9.16570412881316        6.88693582926841        2.78513916952745
C           10.49346071335216        6.67228089457645        3.12688955645191
C           11.17068961432424        7.60296892130777        3.89825773546147
C           11.70978258298628       11.46015212697512        4.51842040441515
C           12.87805259435285       12.16680105631643        4.81581676711767
C           13.14492134089719       13.39029010885013        4.22435587250227
C           12.24504196145270       13.92279960096063        3.31113544277434
C           11.08978006300121       13.22135068949792        2.98907468815411
C           10.82033416936387       11.99794874311406        3.58433218148441
C           10.16408185835227       10.28026751013355        6.67024698705346
C            9.90934966927996        9.29819845241722        7.63234096608093
C            8.92985496948443        9.48711370885139        8.59177029497396
C            8.19335293807577       10.66563199956374        8.60848288306823
C            8.44826127214258       11.65304384022756        7.66774200197957
C            9.42598080415685       11.46348179792957        6.70188190969990
C           11.66077167248286       12.47857692257153        9.69114973338565
C           11.96782282602090       12.66267950837568        8.34283862224675
C           11.47293231792088       13.75442187937841        7.64661613338932
C           10.64728614011194       14.66760993687133        8.28596670260729
C           10.33477228468021       14.49635117918121        9.62870517300691
C           10.84960007740411       13.42083687055888       10.33379838740509
C           13.29531374785360       12.06199939956776       11.91803179409653
C           12.95384219274602       11.96507788516855       13.26756280764956
C           13.61258627237684       12.73602760346084       14.21430563429647
C           14.61045042046915       13.61784698598545       13.82633538370069
C           14.95106387678166       13.72708557984791       12.48446131238338
C           14.30647310730577       12.94945606864323       11.53711630790589
C           11.20207832179431       10.16943581528625       11.49641704982330
C           11.66420182340305        9.04259596885221       12.18595454171212
C           10.79696864480416        8.26317075786941       12.92982548587238
C            9.44743704412769        8.58739586652985       12.98217996134023
C            8.97188284743743        9.68311512021136       12.27673238776069
C            9.84219942939395       10.47281583780188       11.53849949620581
C           16.96936197817676       10.55477575251511       13.22891522126876
C           15.68855796678917       10.00165523692145       13.24210538148248
C           15.01277485729367        9.79978474006343       14.43413297073242
C           15.60901867826770       10.15292949676764       15.63614450923699
C           16.88471679986328       10.70161916429316       15.63862052237984
C           17.56411748485841       10.89737778462412       14.44695117995182
C           19.51390419473762       10.22624998986923       12.00612258652194
C           20.63062077844840       10.93119265045754       11.55231144413862
C           21.90984055380893       10.47132800872271       11.83069632584991
C           22.08933491486063        9.29726477517822       12.54986584975129
C           20.98399796527274        8.57500793216637       12.98146130625467
C           19.70568993861877        9.02980987761105       12.70487396550480
C           17.93379340680427       12.53862431301263       11.30598065358430
C           17.37296240290054       13.02784955477447       10.12522684059881
C           17.40023250916503       14.38034894636728        9.82715025181448
C           18.00759513355265       15.26605344724661       10.70590212350638
C           18.58322239793353       14.79202983698730       11.87907228459242
C           18.54563991941608       13.44039391371374       12.18319648952622
H           20.32573839050238        2.85956683387769        9.09021312997495
H           22.23263069989671        4.39746844355764        9.26521321346204
H           24.52898371285609        3.58918629682418        8.80235118957212
H           24.89028291119402        1.23433638261185        8.12771077367864
H           22.97632883180116       -0.29371685878792        7.89233619023113
H           22.19443455797663       -1.05881163763360       10.07252177873028
H           22.17591874615042       -3.09026428581241       11.45470722137199
H           20.19579491927488       -4.57129318960206       11.47853551350258
H           18.21665681177368       -4.00683172202478       10.08138401990210
H           18.23322114003650       -1.98214760052540        8.70061830116968
H           20.44300417218494       -2.56868126741479        6.93033895079812
H           20.88706157157835       -3.17137340563402        4.58834137208147
H           21.05155757571642       -1.41354156755961        2.85473773196920
H           20.76436954891552        0.96612977782860        3.48377310296161
H           20.31185080995530        1.57615190280516        5.82449600057076
H           16.34686665246978       -0.51559095375713        1.34481049669742
H           17.57989722123381        0.79367318288367       -0.32746288477986
H           19.02591366714422        2.67645640150814        0.37905509609536
H           19.22791176866595        3.23359485559696        2.78485760942644
H           18.00999348128982        1.91492346273532        4.46260884203356
H           16.47660857682083       -1.95522198433749        6.61871035254031
H           17.45206054170000       -4.16240790433368        7.05027475122053
H           18.56556770688724       -5.40681873014075        5.20813972137542
H           18.71132797279913       -4.39453645572032        2.95605235435285
H           17.75560867184943       -2.16980257625616        2.52805370501853
H           15.20495518022190       -2.61141033831834        2.66550281308027
H           13.13539327923426       -2.90858025394347        1.37436063045584
H           11.36319646264609       -1.18055983694168        1.44003084348593
H           11.67234897330909        0.84448479434180        2.83042686286697
H           13.75923566181575        1.16298634758186        4.09949101180609
H           11.59783438621045       -2.79206726613465        8.44005085724790
H           10.14961287750103       -3.67703187387466       10.20998582524921
H            8.12971070642172       -2.43111096276182       10.91461893368565
H            7.56249033140856       -0.28691769974904        9.80909670359659
H            8.98892534638419        0.59192001051737        8.01298490220635
H            8.85654310727276       -1.10808755420283        5.57722644261014
H            7.31800280701864        0.11852299290311        4.10461085842037
H            7.82696316299364        2.44272564362626        3.42451010574020
H            9.90263177012933        3.53371561479184        4.22601273769103
H           11.47912853107342        2.28290597794625        5.64599666423574
H           10.61994915893619       -2.01914946669569        4.41788267727805
H           11.52552061703736       -4.11885116444419        3.53170212447796
H           13.52969761754354       -5.15085860532524        4.55142637967095
H           14.63608416112512       -4.04303748037679        6.48147817479308
H           13.74261766257518       -1.93856926600538        7.36101951375059
H           10.28919736174893       -1.21488026148573       13.53184678537107
H           10.31014466147063       -3.67148734749635       13.61604923266978
H           11.97145974386002       -4.95439935207505       12.30635181502511
H           13.61997879590333       -3.74633875990164       10.88467278001408
H           13.61247125332184       -1.30015325029469       10.82086655908013
H           12.03455244449483        3.29689695090100       13.38917927152643
H           12.55774011260489        4.07492799906846       15.66576960582550
H           13.33447679892117        2.46336799116492       17.38031191566852
H           13.59045214935183        0.07244556177982       16.79457730747354
H           13.03497525883891       -0.71559907874407       14.53223853070216
H            9.69665702713826        1.03591326449256       13.90606635193304
H            7.44354652347247        1.93555685852559       13.50752730970200
H            6.82974176516010        2.82259190101407       11.28004894108750
H            8.49217444791135        2.79800554481426        9.44365172643982
H           10.73814690379167        1.86649476611807        9.83027224086288
H           19.35377061964002        1.40605965869087       15.25187651538400
H           19.11336393407473        3.01622697575777       17.09442228649571
H           17.02431525992591        4.32523644104730       17.34006996991133
H           15.17902632426055        4.01046289001422       15.72433956371433
H           15.41822800186312        2.41231134478406       13.86751511200153
H           16.07946557830924       -0.31653006098956       15.42821612917554
H           14.90536062112217       -2.44336546801296       15.84336733885259
H           14.89351683982041       -4.21741802297139       14.11989752250296
H           16.09192291003570       -3.86346127762358       11.97448572809891
H           17.26845310292538       -1.74835137698856       11.55954326155549
H           19.34197879949272       -1.38933322589481       14.12326727593681
H           21.78955281727292       -1.64996672749609       14.02198343236100
H           23.15977764746022       -0.04932226105368       12.72277016147083
H           22.05940776650871        1.79193958877928       11.48323048623048
H           19.61223104428580        2.04207492788052       11.56376597104474
H           19.32073025964752        8.21045373646989        4.48527823153513
H           19.94285365292915        7.92450820733398        2.11830855423779
H           21.61714323953772        9.42590187005221        1.08504195441129
H           22.64348469723626       11.23470618762311        2.42977981097645
H           22.04645381854245       11.50634945306508        4.80028241555888
H           18.58908519026649       12.18622914208376        6.78714269840383
H           18.92112762947678       14.54329599387944        7.38922729111592
H           21.16441224066088       15.34509112365962        8.07923052970714
H           23.07463487454081       13.77338077944069        8.11680338318248
H           22.75925584337698       11.42023369996214        7.47471488971749
H           21.64557543581877        9.88463734835197        9.18776405573192
H           23.34444665015194        8.39894330081032       10.15875117090893
H           24.22076742781498        6.48251516798187        8.85309949091277
H           23.36207261456090        6.05890958178806        6.56745652959025
H           21.71910968684671        7.57971491965077        5.56590549717938
H           16.93753665265226        9.61847289348816        0.00480205033622
H           17.76230749261674        7.88863020141805       -1.53860441695469
H           18.25241984415660        5.60862138632672       -0.71016385047874
H           17.91324542408251        5.06983402350730        1.68576777523373
H           17.14440986628114        6.81120106954140        3.24162148949966
H           15.16479501530593       12.07492219803460        1.77991983944295
H           12.98733788834568       12.49893068239925        0.71779756556905
H           11.34544008182093       10.66590956195282        0.46002809077261
H           11.89550412123106        8.39455735030770        1.28372035057343
H           14.06801354473037        7.96620880687359        2.35945637146511
H           16.17425062403634       11.90738227636590        4.45161600090002
H           17.49881103041034       13.95730213900834        4.65163690355593
H           19.47156705388355       14.30825862874607        3.17555407312095
H           20.06888939010917       12.58966012757235        1.50019952877067
H           18.74595602837295       10.53047323464444        1.30347123101729
H            8.65955070516970        9.82929714525639        4.37817378512578
H            7.47444874538528        8.19732639902915        2.97429033664649
H            8.63657685258407        6.15856925528529        2.18168414463690
H           11.00165921189807        5.77426025747823        2.79801342487042
H           12.20740751508021        7.42711209233281        4.16639203217317
H           13.58721679374306       11.75440352138841        5.52393246813192
H           14.05384904802592       13.92038488257730        4.48425286942587
H           12.44433722856152       14.88092137704162        2.84593645545058
H           10.38988191805574       13.63019046204320        2.26944398694220
H            9.91924009807805       11.45892886987042        3.31653409287330
H           10.47955823913989        8.37492653838290        7.62118843241463
H            8.74239894123210        8.71506065071243        9.32953190330113
H            7.42009367801903       10.81195638267629        9.35351139666176
H            7.88217226488433       12.57725417035714        7.68190052585016
H            9.61530096220615       12.24049853843435        5.97048324838122
H           12.60987854838882       11.94854533522724        7.83882173467186
H           11.74023997303664       13.89396736208420        6.60575881996900
H           10.25689866658070       15.51994825695196        7.74246359699124
H            9.70055154087250       15.21486232969060       10.13485948736582
H           10.63778961722551       13.32111044347564       11.39238976051159
H           12.16950329971499       11.28754676323374       13.58337953593971
H           13.33940986830262       12.64741069445371       15.25946045510439
H           15.12042723655528       14.22282463362604       14.56675856903026
H           15.72030222464372       14.42469908193912       12.17553251588079
H           14.57903501910080       13.03622953475003       10.49055624811368
H           12.71516991408900        8.77715275861879       12.13719804186528
H           11.17744046574004        7.39847115499911       13.46178274549049
H            8.76553201541019        7.98074780626084       13.56594207184707
H            7.91709782880435        9.93121672787445       12.30443496280244
H            9.45876914785163       11.32615935641649       10.99224825778515
H           15.21724874033229        9.72459798175785       12.30566378074449
H           14.02219336556674        9.36000141729713       14.42354988489270
H           15.08349278691830        9.99335197409353       16.57019140586742
H           17.35718999961869       10.97257643392386       16.57562989366804
H           18.56669976411025       11.30872514559983       14.46364517518610
H           20.50000090741327       11.85066499976663       10.99285078173956
H           22.76899790993183       11.03854527889719       11.49142540799080
H           23.08901360198638        8.94533112270000       12.77630573454797
H           21.11864947817729        7.65552991252230       13.53882635501909
H           18.84625332337320        8.45905238793490       13.04053645338016
H           16.90567967924927       12.34005800366713        9.43080746955928
H           16.94057585244600       14.73077280077683        8.91032763911914
H           18.03446099080846       16.32535814691437       10.47935558818681
H           19.06189890507742       15.48093131188286       12.56547088154657
H           18.99231597143749       13.08506562664180       13.10460823449010
C           20.49400129681369        4.69248255173024        5.21110312806143
C           21.66041686411261        3.93597041249595        5.32780886878990
C           20.17102710166184        5.26691998026864        3.98608691370185
C           22.48668719353346        3.75633316684001        4.22938667119830
C           21.00327971956147        5.08836891734883        2.89003190245459
C           22.16174219398072        4.33145233221159        3.00741351115937
H           21.91787793044173        3.50189226038954        6.28646521564769
H           19.26537331910248        5.85512868242125        3.89809061985044
H           23.39065564843319        3.16660379327090        4.33014632606232
H           20.74408017007183        5.54397702238041        1.94078505435510
H           22.80928743472549        4.19213499546906        2.15015076373585
C           13.88544089119848        4.53353910081471        2.70986542115195
C           14.12473032557269        5.22821956896925        1.52443653213305
C           12.73945275240906        3.75408671841633        2.82489806126519
C           13.23067097393650        5.13735670713630        0.46957881140695
C           11.84944846609047        3.65968314814826        1.76445062055522
C           12.09197108230329        4.35015528030241        0.58352507346981
H           15.02287679081887        5.82683809127605        1.43180816481673
H           12.55017996273668        3.22279529125371        3.75001117308889
H           13.42707870345216        5.68089803939141       -0.44755092198487
H           10.96335218373660        3.04223100354815        1.86082716426790
H           11.39551547670780        4.27504589654473       -0.24287356322545
C           20.20418439749769        5.32033482251166       11.77653279670427
C           20.39440881149475        4.45365502650635       12.85322733705136
C           21.30351293883379        5.91338306003748       11.16520872763527
C           21.67360033423001        4.17433921053701       13.30571792065613
C           22.58258353159503        5.63283663330140       11.62825900222862
C           22.77284118156299        4.76134619979780       12.69172775161770
H           19.53209669978255        4.00814367454404       13.33624385145805
H           21.15509168705011        6.59920929659418       10.33894164547523
H           21.81165441294954        3.49775476699539       14.14139008184539
H           23.43891499051383        6.10054705503031       11.15707264980062
H           23.77409099382885        4.54489448008579       13.04432803369414
C           10.17953410500498        5.49203150990879        9.80235549544748
C            8.83722791290757        5.86859519569407        9.76391593217328
C           10.75991743225676        5.16071459466934       11.02228042460539
C            8.08374469708795        5.88954646011967       10.92775146999674
C           10.00300531881713        5.17874790817958       12.18278302285530
C            8.66086229712635        5.53375472123522       12.13993484753877
H            8.38655663857904        6.12424695128657        8.81230709022795
H           11.80604224675356        4.88150254162572       11.06337598275141
H            7.03892477013920        6.17499220824370       10.88578910368000
H           10.46209558791229        4.90597896185351       13.12625566134224
H            8.06742034205803        5.52877047269219       13.04637934114152
C           14.88414396757774        6.30144242469637       13.81157340251924
C           14.18588333843452        6.49866996171417       15.00232362924440
C           16.26985245379425        6.41740173065867       13.80563134512467
C           14.87041700345669        6.80905638740844       16.16906082373019
C           16.95017127623947        6.73097143926876       14.97108574235165
C           16.25430516554922        6.93044240196971       16.15685363459561
H           13.10513801835993        6.41634819772449       15.00446851491097
H           16.82093685995529        6.26042804671357       12.88543171301223
H           14.31875973062772        6.96214602490550       17.08948001234859
H           18.03078520833167        6.81965089908995       14.95215021716500
H           16.78689739901653        7.18222464543301       17.06615724873139
