241
 energy: -443.534403724065 gnorm: 0.000558370416 xtb: 6.5.1 (579679a)
Au           7.91622219102589       14.95414410587274       -0.00064320120288
Au           5.74606288309654       14.64733003730087        1.70657700004320
Au           8.40407331187755       13.45447221716107        2.38250755668010
Au           5.07953507627355       12.08917100102085        2.99225491085102
Au           6.87833069803089       12.15230034575950        0.35500062096348
Au           8.49990388217962       10.44884791827897        2.22745346645800
Au           9.80114267967083       12.68336317630854       -0.31176579626203
Au           7.87405670841347       13.40078782714236       -2.44536250856207
Au          10.04073208604063       11.60096621237907       -3.22418708547145
Au          12.50536385201937       13.62533875898630       -1.10540133792236
Au          10.47768009182379       15.77955866911160        1.42744122109630
Au           5.69844028850912       14.55551745301756       -4.42548401045559
Au          10.62856493537773       18.53499837328465        2.59277488389091
C           12.82511583038774       10.41030456824837       -1.94256105552164
C           12.34041370861625        9.18991992893801       -2.40604066201805
H           11.63373205702520        9.17228303845131       -3.22717245711489
C           12.76193984119019        8.00392327555145       -1.82500944022836
H           12.37462840511930        7.06054920246092       -2.19276765317843
C           13.67727098827237        8.02336763953663       -0.78088185006671
H           14.00287815926401        7.09637173906464       -0.32392085678616
C           14.17588525556481        9.23769189934826       -0.32935754872214
H           14.89544060389500        9.26450518515243        0.48089826328128
C           13.75287552328077       10.42483590943366       -0.90614131148417
H           14.14102477344298       11.37059319995792       -0.54710626126452
C           11.82147613369910       10.91733339464578        1.94540326729307
C           12.59381112923407        9.85679536872837        2.41200684704621
H           12.28122703819532        8.83972517905258        2.20842626774152
C           13.76629152952737       10.10703317531262        3.10985666130565
H           14.36588180975827        9.27628699427492        3.46433207923552
C           14.17933391773742       11.41328102539758        3.34319441888694
H           15.10650073747343       11.60593997813605        3.87006807120917
C           13.39602254284807       12.47012838055127        2.90045175772763
H           13.70066349724149       13.49540990967141        3.07505144179877
C           12.21706940017960       12.22046660098203        2.21706901986755
H           11.59877830056783       13.04472492209208        1.88790080846213
C            6.76554407919039        8.95515516313482       -1.06726260740448
C            6.27678660259041        7.70885129043700       -1.45256416010036
H            5.20645939342417        7.54538028960176       -1.49107228300929
C            7.15660195175517        6.68486675933043       -1.76946351982169
H            6.76692867433293        5.71777775810097       -2.06692201553289
C            8.52911159396481        6.89024635856530       -1.69973951069354
H            9.21384671077876        6.08449736532528       -1.93728468809837
C            9.01720516619603        8.13412500388946       -1.32679863460340
H           10.08421222555307        8.31380865859534       -1.26134409436087
C            8.13762084666356        9.16147698914198       -1.02491049469606
H            8.51952350731708       10.13768998520901       -0.76191088204919
C           13.51193398124088       16.50073616431136       -0.16101393798701
C           14.75316952418460       16.34030088010923       -0.77407054384401
H           15.24357984264263       15.37471625090746       -0.74355605869087
C           15.35485537645018       17.41041346532400       -1.41824911264554
H           16.31844288638521       17.27233986816044       -1.89557072958326
C           14.73311869869054       18.65230659492239       -1.45439358692256
H           15.20802002901222       19.48582491554788       -1.95827925089977
C           13.49990669758142       18.81747733756909       -0.83935128505211
H           12.99926752212753       19.77889909242367       -0.84295965070299
C           12.89476538667759       17.74439423219189       -0.20472925117656
H           11.93208241459521       17.87273243872539        0.26450599937075
C            4.21968234636511       14.73979228109764        4.71207187983539
C            3.50582797708931       15.83993633804444        5.18243965424454
H            2.68655124898794       16.23575058486019        4.59485146361791
C            3.84146585978986       16.42752314792837        6.39270865162446
H            3.28242406632640       17.28811801167264        6.74223556052444
C            4.88142100542020       15.91460479612785        7.15603781290763
H            5.14019856439192       16.37017069508392        8.10448085294424
C            5.58944537813080       14.81306426240139        6.69321427068401
H            6.39793438128999       14.39300689331691        7.28057162886855
C            5.26839444357421       14.23748899703336        5.47495605657608
H            5.84472837891217       13.39217074784545        5.11677130293264
C           13.07124007096170       16.76577034219880        4.06894858152864
C           13.60509855395877       15.68539810719215        4.76767584560435
H           13.00304433976036       15.18141221319441        5.51430704701530
C           14.89932943439888       15.25822062403913        4.51185625380584
H           15.30480589577147       14.41821471007214        5.06447522754414
C           15.67324702556178       15.90469127584593        3.55641970367961
H           16.68132898623488       15.56453755073143        3.35096076757745
C           15.14797073411084       16.98980961767032        2.86867029564035
H           15.74328073347425       17.50175058923712        2.12117670139114
C           13.85648459531655       17.42180273959815        3.12682061545018
H           13.45083137218391       18.26772196532947        2.58542059713448
C            6.36640751899474        7.77638086124066        2.05714179814453
H            7.44748311998241        7.84120595472464        2.01783116533122
C            5.63526865448143        8.80896623160442        2.63493761860538
C            4.24734762418556        8.71356488356137        2.69325090300921
H            3.67722768834984        9.50647288239083        3.16254960224401
C            3.60019018527739        7.61104111434155        2.15839244677325
H            2.51869793835308        7.55107873308581        2.20364236901040
C            4.33216433264554        6.58890672768515        1.56804251025692
H            3.82530369359170        5.72969997036054        1.14493226222318
C            5.71717664052328        6.67275505311003        1.52636613211728
H            6.29834736743478        5.87861590209569        1.07182250757875
S            3.72313782236791       14.03794440556699        3.18560058669805
S            6.44090911955374       10.17763368102568        3.35787408980256
S            5.61243252462670       10.18485393258654       -0.59454556783020
S           10.44250852855706       10.55631869698150        0.92906141183053
S            7.81451115860001       11.11253545863206       -3.77174508766155
S           12.33291304952636       11.89549364187571       -2.71992722967786
S           12.79330001520635       15.14465916256042        0.67456249854482
S           11.45451117712554       17.30936382262237        4.45151144618189
S            8.75227908974704       13.49038363890734        4.85292896164262
C            9.76021879177959       12.11965802863838        5.25016451952069
C            9.12721656218883       10.89293599604042        5.45271146494079
H            8.04912507629300       10.82999328976762        5.37222724670610
C            9.87055394721181        9.76861249244513        5.77777284189759
H            9.36824858174574        8.81939405317171        5.92553417798936
C           11.24906074327582        9.85961775823286        5.91922921478724
H           11.83103088733086        8.98105884540215        6.17156133551528
C           11.87701764636809       11.08474716722137        5.74217101398555
H           12.95135360814642       11.16766317541232        5.86039899879627
C           11.13867995527235       12.20780613495185        5.40302190858127
H           11.63550830790486       13.15926955589831        5.25239582508808
C            7.46748256893758       11.54338150491017       -5.43020671135270
C            6.69054004908631       10.64847387409832       -6.16210598014790
H            6.39021631986736        9.71148209746996       -5.70857860259943
C            6.29532918997526       10.96233628512556       -7.45273088817501
H            5.68623760943285       10.26154212452524       -8.01224736180697
C            6.66864546807792       12.17221166869281       -8.02307298960028
H            6.35165278950904       12.42225091356802       -9.02862767525832
C            7.44904647924327       13.06087184916293       -7.29792937636591
H            7.74195507615056       14.00747616842281       -7.73619350506391
C            7.85166891202891       12.75023895780395       -6.00574880349789
H            8.47722570230125       13.43864576956013       -5.45020953081201
Au          10.08672483698331       15.26063946712654       -1.70638436655113
Au           7.42895818754192       16.45253192866183       -2.38196084734218
Au          10.75271107791568       17.81764767307224       -2.99291823547136
Au           8.95453475842046       17.75533476787285       -0.35495776405601
Au           7.33190514107793       19.45900652303851       -2.22875950413918
Au           6.03121058290315       17.22478557760508        0.31146297438205
Au           7.95863999888046       16.50673737139581        2.44508336594644
Au           5.79232400176591       18.30621063567177        3.22444002010227
Au           3.32760508790155       16.28216417901591        1.10549078311700
Au           5.35505621078947       14.12885289981351       -1.42738899770006
Au          10.13592677384521       15.35121961196943        4.42578509952379
Au           5.20451785005988       11.37250907778492       -2.59324468182590
C            3.00739336374305       19.49758476145096        1.94264337603035
C            3.49211563211459       20.71795370479538        2.40611566331586
H            4.19879083154212       20.73558419197271        3.22725207762077
C            3.07063511020675       21.90393692396177        1.82505502870441
H            3.45794777910933       22.84729986183719        2.19282619571032
C            2.15534249606353       21.88448450977990        0.78089467638368
H            1.82972753837453       22.81147771850957        0.32394535588371
C            1.65679027393007       20.67015986167738        0.32930906763867
H            0.93730061128082       20.64333182799854       -0.48100197603890
C            2.07975469486724       19.48303077473432        0.90612885549109
H            1.69169647115924       18.53726479801199        0.54701450012619
C            4.01129347719621       18.99042796644050       -1.94540207564908
C            3.23892156832468       20.05096102734031       -2.41199926009714
H            3.55149828925341       21.06804149033460       -2.20845184310225
C            2.06643933778124       19.80071276547372       -3.10985381595178
H            1.46686458444890       20.63145175334603       -3.46438333492904
C            1.65341301769943       18.49446150917018       -3.34319503061486
H            0.72625265958626       18.30179319763188       -3.87007809140299
C            2.43671922857443       17.43762222327436       -2.90041873667119
H            2.13210091878105       16.41233871351796       -3.07504575030873
C            3.61567217557845       17.68729092157966       -2.21702972494511
H            4.23395853349576       16.86303032148369       -1.88784132990913
C            9.06709932590503       20.95261307852804        1.06732809402166
C            9.55584483493635       22.19891645667246        1.45263497252685
H           10.62617048218299       22.36239870334682        1.49112609479479
C            8.67602008253488       23.22286796481956        1.76961081822182
H            9.06568736311932       24.18994641859201        2.06711092085724
C            7.30351010600668       23.01747407480161        1.69991835091687
H            6.61876907891113       23.82319299563746        1.93754581159897
C            6.81542444644631       21.77361052978175        1.32693113994411
H            5.74842029977034       21.59391600237544        1.26145487951492
C            7.69502346540245       20.74627153491584        1.02505249597304
H            7.31312640906440       19.77004030708603        0.76213436135495
C            2.32064601656391       13.40710394608276        0.16102771834695
C            1.07936110509513       13.56745803427906        0.77400227289148
H            0.58889809416169       14.53301284289724        0.74345826909159
C            0.47768570256534       12.49729380492616        1.41810774415907
H           -0.48592640862629       12.63531006383779        1.89539352926781
C            1.09947643156882       11.25542649803298        1.45425630205991
H            0.62460232008890       10.42187769279027        1.95811948645284
C            2.33272464029249       11.09032966077562        0.83927703657955
H            2.83340142957741       10.12892475506883        0.84286806872529
C            2.93784577399165       12.16346131021587        0.20472790401519
H            3.90052211627085       12.03515733279718       -0.26452310282309
C           11.61309321262335       15.16798200532745       -4.71208003276034
C           12.32682777882725       14.06774517902163       -5.18242470333018
H           13.14608890224024       13.67188923466541       -4.59484144110758
C           11.99111885926321       13.48013264746101       -6.39266172553696
H           12.55013994597479       12.61953225312137       -6.74220137974165
C           10.95117051693068       13.99308066933393       -7.15597566349485
H           10.69238027136967       13.53753007037557       -8.10442579270705
C           10.24320088976450       15.09465835772479       -6.69314632281565
H            9.43471410908162       15.51472812792812       -7.28050394001294
C           10.56433619855238       15.67028745935426       -5.47492293552442
H            9.98798813964390       16.51558040798253       -5.11671944336935
C            2.76131691521259       13.14196004263394       -4.06895548888824
C            2.22744338580759       14.22230410673643       -4.76772886632397
H            2.82945386152424       14.72624666332483       -5.51442010153298
C            0.93323964977316       14.64951822785060       -4.51188177981847
H            0.52776949360773       15.48951345330475       -5.06451798168062
C            0.15934209141610       14.00307125375511       -3.55641803109956
H           -0.84873383436745       14.34322995820596       -3.35095718619773
C            0.68461408114150       12.91795433262154       -2.86866361644478
H            0.08930667017345       12.40600467327180       -2.12117584198631
C            1.97608544298148       12.48594533686748       -3.12682179659544
H            2.38173556701391       11.64001155023067       -2.58544009492425
C            9.46632255752927       22.13141901584959       -2.05705328072639
H            8.38524886004994       22.06656838595060       -2.01771522068362
C           10.19746033288470       21.09884786024255       -2.63486142250182
C           11.58537636088358       21.19426171977791       -2.69322390526656
H           12.15549895649931       20.40136301873720       -3.16253204237863
C           12.23254162636337       22.29675490511590       -2.15833925075976
H           13.31403322767432       22.35670153614895       -2.20359710681327
C           11.50057348625317       23.31886581700191       -1.56794769199226
H           12.00744340294852       24.17804775034001       -1.14480611272263
C           10.11555912592413       23.23502981754142       -1.52626753113669
H            9.53438935164625       24.02914797892564       -1.07169378366627
S           12.10949205168867       15.86936471895636       -3.18533596799300
S            9.39182579092492       19.73003473916688       -3.35751564850654
S           10.22021569592253       19.72292544211024        0.59459483697221
S            5.39018792351400       19.35138994680507       -0.92893532364817
S            8.01821070827856       18.79519262014790        3.77174954392756
S            3.49990210380404       18.01236459268516        2.71972976035910
S            3.03914785973733       14.76312601045398       -0.67477100866536
S            4.37798706277693       12.59819596353905       -4.45150616634862
S            7.08016743545166       16.41738598588985       -4.85279205469407
C            6.07237066071820       17.78814854228110       -5.25024401432868
C            6.70541131196077       19.01486444673479       -5.45267679557286
H            7.78350306462725       19.07777169071142       -5.37214192316894
C            5.96210121253901       20.13919397947534       -5.77777086801231
H            6.46443077240215       21.08839200877451       -5.92556689782064
C            4.58359107716868       20.04821089122909       -5.91926012144320
H            4.00163991540951       20.92677349890021       -6.17160336494661
C            3.95560134978605       18.82309606125465       -5.74223919831048
H            2.88126762691626       18.74018535051510       -5.86048345570618
C            4.69391934332598       17.70002690984286       -5.40312856930012
H            4.19707323929507       16.74857199665436       -5.25249411858601
C            8.36507099260518       18.36437121412585        5.43025427566461
C            9.14208955809226       19.25922125507152        6.16214615327391
H            9.44247432002850       20.19619139455868        5.70861128958775
C            9.53729554109032       18.94532975066119        7.45276509910152
H           10.14638723605517       19.64611405066982        8.01230056706651
C            9.16397221570313       17.73544132082060        8.02308080916273
H            9.48096727928337       17.48537791101039        9.02862718125194
C            8.38357235032666       16.84679405085192        7.29792088275974
H            8.09072460701533       15.90014440509305        7.73613303047919
C            7.98089749803918       17.15748924939968        6.00576866808835
H            7.35529465005988       16.46911021215659        5.45024652424358
