385
 energy: -719.957092606607 gnorm: 0.000714444291 xtb: 6.5.1 (579679a)
Au           1.94119566584425        5.61766951440560        8.15697888277259
Au           6.50319852008668        3.57969338487085        9.45030586356713
Au           4.15398435455147        3.98426458847830        6.95912850357447
Au           2.08038931306403        6.59107661573735       10.86395403085318
Au           4.59692382070727        5.06314370815620       12.22115617844829
Au          -0.79928873987878        5.14564841892058        7.16979131706453
Au           3.37366478125866        3.68504173802398        9.82413269241538
Au          -1.55759606744926        1.98296118038748        7.94544445546630
Au           1.30245182529688        1.29764231095627       10.39003974683189
Au           0.21095686150163        4.18792910704236        9.92899615043678
Au          -1.15914922779561        6.10350297544271       12.00899063468814
Au           0.87222724564729        9.28807376632646       11.37339686201376
Au           2.55987789798499        8.39683818023865        8.59955773230448
S           -2.69951132820517        3.58523451250996        6.66953942131307
C           -2.47372418566895        3.01883154351791        4.97222657882011
H           -2.87766377923246        3.79615179426702        4.32205401014124
H           -1.41866936631796        2.87822476210108        4.73688704348500
C           -3.23880649843669        1.71033711107330        4.77429423102432
H           -2.84055245149954        0.96544324061115        5.46912211785107
H           -4.29242076632946        1.87411229497018        5.01582029572895
C           -3.09062678948948        1.21864654984549        3.35972670259674
C           -2.03129023985675        0.37099969346427        3.01617896371008
C           -1.86788269795243       -0.07359793641144        1.70419771511003
H           -1.04294540735874       -0.73119378524337        1.45655443196075
C           -2.76043008476093        0.33836261857197        0.72788140284841
H           -2.63268274217497       -0.00275166388726       -0.29299554225619
C           -3.81220975505708        1.18478016554570        1.05392031605539
H           -4.50805238745070        1.50684668565109        0.28821513713194
C           -3.97288864848042        1.62031369578914        2.36269489982129
H           -4.79696008403615        2.27849505019707        2.61573815160535
N           -1.14258884610729       -0.00775703072133        4.03746399405232
N           -0.26837194231753       -0.81322486949651        3.82312445490291
N            0.58953819012842       -1.54065748223154        3.82006493678863
S           -0.64606474340704        0.39413140517288        9.41986053575630
C           -1.80902403468534        0.36535044568350       10.80175765642144
H           -1.76952105035940        1.30108652542573       11.36284042608081
H           -2.80921791904782        0.24596599705061       10.38737360827782
C           -1.47685356512865       -0.80924954838986       11.71910076502962
H           -0.52022221026057       -0.61847694058452       12.21166519417251
H           -2.25499191980384       -0.88034862691439       12.48645994027823
C           -1.40153759203792       -2.09280612187784       10.93410473291003
C           -2.55761318042129       -2.62233127156442       10.34967650968167
C           -2.49988965201260       -3.77191632478648        9.56362887627295
H           -3.40524825279625       -4.16767149688837        9.11859925170200
C           -1.27880958276863       -4.39373142386293        9.35427770732118
H           -1.23008589681985       -5.28484924323461        8.73901131124429
C           -0.12374365709815       -3.87765165166785        9.92630183570009
H            0.83069071923224       -4.36272586908456        9.75839854797119
C           -0.18995374652983       -2.73277029158293       10.70920453146420
H            0.71572789844662       -2.32585991013664       11.14652285199731
N           -3.76633083850818       -1.94470538514164       10.58550761632365
N           -4.78425823655349       -2.27424201149327       10.02268409209772
N           -5.81697932183169       -2.40533246631775        9.59739999335039
S            3.35583215388358        1.76432440079580       11.45700974700993
C            4.47315143017908        0.65356821307174       10.56966754287927
H            4.37405949997143        0.80129174785747        9.49554416927802
H            5.48835751320059        0.92696970773750       10.85830752111575
C            4.21057559699515       -0.81416248690693       10.89757057575740
H            3.20634258272245       -1.08204492541272       10.55700324165518
H            4.93314708450026       -1.41743870397961       10.33717432849421
C            4.34900161976903       -1.11284607617661       12.36683201632608
C            5.58987929266643       -0.97509996707604       13.00057926174872
C            5.73612718739825       -1.26509068315132       14.35590365688987
H            6.70738145260243       -1.16566108451188       14.82559102158860
C            4.63602596966852       -1.67885488927914       15.09019473440046
H            4.74761222545022       -1.90019364094203       16.14542107837893
C            3.39812071760021       -1.81118145097249       14.47706252533771
H            2.53890667207596       -2.13693478765467       15.05117023583726
C            3.26182234352584       -1.53046191201123       13.12309693094488
H            2.29533048114797       -1.64713357349427       12.64432470067197
N            6.67485632408208       -0.54551747718336       12.21975806044543
N            7.75183900032896       -0.32138365084343       12.72221365096101
N            8.80572027878304       -0.04182093726855       12.99615501660455
S           -1.60351293841928        3.82580310252734       11.64784816545939
C           -2.93415888036759        3.76603592833191       10.43497288499514
H           -2.99538098713686        4.69719227396731        9.87670966038226
H           -2.66786015168684        2.97996206368243        9.72592427679317
C           -4.29151172780115        3.41696134807115       11.04461192156359
H           -4.16008731915980        2.69300196342712       11.85224280180122
H           -4.75496583497796        4.31637656608921       11.45856817944865
C           -5.14094446878494        2.82831880907030        9.94541548598949
C           -5.49054733656816        3.61440577677719        8.84049979528936
C           -6.17083059209867        3.06862987507518        7.75436245126064
H           -6.42173687805316        3.69543964449092        6.90695692152899
C           -6.50538115919164        1.72361691007152        7.76907406759639
H           -7.02798737162003        1.29223225958423        6.92312600166312
C           -6.17049110018455        0.93214958925069        8.85939915580977
H           -6.43131686410609       -0.11990769339051        8.86867379989637
C           -5.48708035199570        1.48289711329517        9.93616923537531
H           -5.21686612588462        0.85630546362403       10.77939754635978
N           -5.11779875602491        4.96784368694250        8.86826669768933
N           -5.21202178781102        5.67924680600294        7.89908115739793
N           -5.19104240805637        6.51382826371999        7.14367082824813
S           -0.73510274952421        8.30732498700763       12.81118883158707
C            0.12984482795230        7.89553522135349       14.34405282280244
H           -0.64209526812805        7.74901596152118       15.09909215511390
H            0.64984792716274        6.94689261021312       14.21100769264761
C            1.13625058144036        8.95975489154135       14.80723086483601
H            1.32427358115389        9.67728036483233       14.00519771908148
H            0.72090680643861        9.51075869091004       15.65644111241712
C            2.43142924025540        8.29648752707329       15.20221216333272
C            2.43485522760238        7.33547428888037       16.22256852895872
C            3.59821230088403        6.64028675994328       16.54977223540062
H            3.57954405153534        5.89755111795720       17.33856560811599
C            4.76577124444140        6.89765410539085       15.84884718513655
H            5.67030756116805        6.35141943419146       16.09107882426528
C            4.77421727939068        7.84262057243967       14.83237111382878
H            5.68603488966756        8.03190092979662       14.27977561798961
C            3.61300752577081        8.53639740672626       14.51357627714372
H            3.62309860299705        9.26063924045033       13.70608553116842
N            1.21780108828725        7.08667522423368       16.87716364925389
N            1.12353175423382        6.17275513545235       17.66519986546875
N            0.83894200663075        5.37555956623100       18.40382799613507
S            2.50214131713205       10.41065638891738       10.10291057531805
C            1.61919972472288       11.60775411999785        9.07644590541780
H            2.36226286199627       12.01128739662448        8.38692558203431
H            0.83799976920274       11.12059447643844        8.49385191700683
C            1.02699087203209       12.74742628114469        9.90514828065486
H            1.80581809886424       13.16105944243766       10.55063361224347
H            0.70454411612983       13.52868951225884        9.20767923359482
C           -0.15187844464178       12.31445894721574       10.73443802145615
C           -1.35985080617955       11.96234099764910       10.11909478001740
C           -2.46363043712193       11.57774158447283       10.87815872655844
H           -3.38683958296496       11.30909360944712       10.37912162335692
C           -2.36791629399291       11.54305392743779       12.26029426961641
H           -3.22762379171134       11.24842618590798       12.85074259242856
C           -1.17733021087136       11.88717964697956       12.88492350316791
H           -1.10051394339360       11.85757457601493       13.96530754300665
C           -0.07808097922326       12.26610660243930       12.12405888399753
H            0.84695525600545       12.54502772540122       12.61528909629283
N           -1.42308835235287       12.02388059870471        8.71622465557327
N           -2.44616160451338       11.73437823432630        8.13629158080561
N           -3.27724972326470       11.50410440596551        7.41535231792893
S            2.59618153635639        5.82118507687946       13.15331879338855
C            1.59188016771874        4.33336014083746       13.24763899865397
H            0.56551200234855        4.66385541809886       13.40797355188962
H            1.62254321516026        3.76704260448904       12.31873092661721
C            2.03746219932631        3.45443383956722       14.41029688442595
H            2.99299625660006        2.98515502037101       14.16214689669880
H            2.17697130933793        4.08066864617283       15.29673852617162
C            0.97969438402894        2.41712402647160       14.67672365968284
C           -0.25616928328484        2.81552782034347       15.20100858851279
C           -1.27018421056475        1.88688032368456       15.42616539072790
H           -2.22288136511863        2.21271437431138       15.82675042104928
C           -1.04269821882421        0.54974419377382       15.13889194010594
H           -1.82536722461328       -0.17797659919573       15.32077509566441
C            0.18139733203788        0.14221190507545       14.62498095723498
H            0.36133108303885       -0.90664910573984       14.42068117638851
C            1.18112151832925        1.07626022509704       14.38363817388577
H            2.13388230743762        0.75859499640623       13.97466537354381
N           -0.42241312468261        4.18229670902542       15.48284175969651
N           -1.44342849166439        4.60351199219740       15.97300326374791
N           -2.29014247116193        5.19411224739443       16.41881263038087
S            6.27189149145908        2.65352500976028        7.30016661453127
C            7.58433546546956        3.49988869727487        6.38705446001603
H            7.30296309081416        4.53528414848166        6.20047462150586
H            8.47830217504689        3.49675104658462        7.00576305254655
C            7.87837983133468        2.79010469482966        5.06346843593262
H            8.52580387339331        1.92986600882651        5.25781803958221
H            6.94655902823336        2.42103852544648        4.62783271089730
C            8.54307836011440        3.73814721845548        4.09597133918832
C            9.72550752620251        4.40499705539632        4.44180661285551
C           10.29275554073623        5.34680686335444        3.58204365264298
H           11.20512273694854        5.85570954388070        3.87022180459365
C            9.68602842723422        5.61986489111044        2.36556248841520
H           10.12255360356611        6.35776313846564        1.70235943135032
C            8.53219051951057        4.94326511870161        1.99692218461682
H            8.06023660957481        5.14627501859019        1.04310746364834
C            7.97169982840014        4.00930701813599        2.85813049700199
H            7.07969911339015        3.47235215598859        2.55832641881078
N           10.32266327211011        4.09183558470562        5.67370942566834
N           11.27903146503278        4.71669736473441        6.07104896192012
N           12.14581242619136        5.18328415498125        6.61361903523447
S            6.78645274927428        4.43962798278009       11.62938831132270
C            7.05804811295140        3.04451539060494       12.74239203031172
H            6.28719752898229        2.28345393049243       12.61801089001629
H            8.02575487944430        2.60800831147216       12.49435356646373
C            7.06331449517875        3.56450006467417       14.17913173231269
H            7.78542664210088        4.38215979372607       14.25579161365788
H            6.07273375717443        3.96335545764074       14.41479950931561
C            7.41876773755653        2.46841091889743       15.14812271404041
C            6.42199416693474        1.77764425202227       15.84414710425857
C            6.75461919616000        0.76706613896072       16.74782077936784
H            5.97161736105465        0.25369011151597       17.29342954901964
C            8.08464229543690        0.42785129624295       16.93792264742509
H            8.34186388973450       -0.35976791565889       17.63678809168029
C            9.08176387082921        1.09321601052242       16.23657582736046
H           10.12115166234718        0.82348999969538       16.38114569832021
C            8.74635025007376        2.10806201073328       15.35183357337972
H            9.52697883590402        2.63087576114387       14.81024605606686
N            5.08282707723709        2.13540833498715       15.60675423775623
N            4.19350989239161        1.55342913608181       16.18508262122504
N            3.24758837103185        1.12591140382847       16.61638274199753
Au          -2.62119896153822        7.65579217416927        6.86208150887924
Au          -0.27204942952257        7.25147118184013        9.35357872951473
Au           1.80151485964057        4.64468019739329        5.44809942540736
Au          -0.71470583582628        6.17267646521907        4.09141917991115
Au           4.68087035975931        6.08968376971242        9.14265077640166
Au           0.50809988006942        7.55125005202769        6.48792670681980
Au           5.43959893616044        9.25270668695435        8.36682633566644
Au           2.57920476911090        9.93826031697082        5.92257679338716
Au           3.67122093872088        7.04785642648101        6.38339128640782
Au           5.04108165073210        5.13206871198808        4.30389924930324
Au           3.00959520533757        1.94765755348882        4.93897699882889
Au           1.32192938575817        2.83853535410299        7.71318092626731
S            6.58126671088803        7.65037474999352        9.64299488671223
C            6.35560983006578        8.21684927477835       11.34029990276171
H            6.75954515667528        7.43953600045724       11.99048204538442
H            5.30056172449135        8.35747470458284       11.57564637863951
C            7.12069483198885        9.52534915545487       11.53819372673382
H            6.72243898856625       10.27024016277320       10.84336446936852
H            8.17430648597473        9.36157083361915       11.29666076074935
C            6.97252118090819       10.01705686703406       12.95275493454346
C            5.91317669860435       10.86469190162669       13.29630818483308
C            5.74977833615088       11.30929248422633       14.60828977261158
H            4.92483797228441       11.96688172855842       14.85594053426010
C            6.64233863698129       10.89734244676977       15.58459887712591
H            6.51459942836499       11.23845997346428       16.60547570358553
C            7.69412283913465       10.05093264820370       15.25855392585259
H            8.38997455848060        9.72887206001610       16.02425309075987
C            7.85479588318382        9.61540074088943       13.94977867751413
H            8.67887000848534        8.95722593417581       13.69672704135641
N            5.02446363584817       11.24343508919677       12.27502874465742
N            4.15023795694207       12.04889474971724       12.48936743243344
N            3.29231093566834       12.77630595507889       12.49243016098014
S            4.52793816211884       10.84158502848839        6.89255303242748
C            5.69097312703857       10.87028213636557        5.51072193051276
H            5.65145927527472        9.93453313734443        4.94966094667894
H            6.69115892263912       10.98966197538912        5.92512679716372
C            5.35880912881097       12.04487115410410        4.59336126941346
H            4.40219251913752       11.85408747591645        4.10077172381852
H            6.13696641129852       12.11596725005767        3.82602234549590
C            5.28345843931899       13.32843667196926        5.37834189980592
C            6.43951220724931       13.85796600484897        5.96280875434006
C            6.38176117175305       15.00755716037470        6.74884537598870
H            7.28710420911643       15.40331477363644        7.19390441007462
C            5.16067524347943       15.62937800025395        6.95814387010107
H            5.11193098878692       16.52050240810264        7.57339925041448
C            4.00563008781383       15.11329630904284        6.38607982577305
H            3.05119086992197       15.59837541492086        6.55394209060711
C            4.07186721837862       13.96840695246741        5.60319026773492
H            3.16620104499468       13.56149679689400        5.16583970355237
N            7.64823608432139       13.18033126836931        5.72703461177330
N            8.66613636055945       13.50985365598037        6.28991759617368
N            9.69885419701167       13.64097392225095        6.71519904997249
S            0.52606800858089        9.47135270964404        4.85534457803211
C           -0.59123721329267       10.58199343211781        5.74285732077647
H           -0.49210426064211       10.43421845687105        6.81697367188318
H           -1.60644947703345       10.30858423606194        5.45423883299497
C           -0.32874665995655       12.04975168763202        5.41498233218465
H            0.67548470937233       12.31767101876077        5.75552891488404
H           -1.05132739621032       12.65299029280540        5.97541004212044
C           -0.46722672134009       12.34848428886443        3.94573218623762
C           -1.70810511129283       12.21068700633878        3.31199324130299
C           -1.85438243299249       12.50069909298362        1.95667570043704
H           -2.82563490430566       12.40122210751682        1.48699440016373
C           -0.75431329465736       12.91454437302949        1.22238251967535
H           -0.86592352840397       13.13590541006036        0.16716324747999
C            0.48359038623495       13.04692607338495        1.83550506372029
H            1.34278100338855       13.37273773242455        1.26139525310474
C            0.61991819851714       12.76618359568769        3.18946308826103
H            1.58641032635749       12.88289334166834        3.66822539038307
N           -2.79305486135695       11.78102986603840        4.09281156051147
N           -3.87002870419150       11.55684812999874        3.59035484951548
N           -4.92389693744738       11.27723978756855        3.31641281732324
S            5.48548701898227        7.40988700342315        4.66454728202660
C            6.81607095203168        7.46958981054986        5.87750038539042
H            6.87728639667907        6.53843059342997        6.43576589478195
H            6.54973854413220        8.25565515839995        6.58654372990124
C            8.17343671233915        7.81870081307534        5.26790394250421
H            8.04201174891669        8.54268668227710        4.46029689312304
H            8.63690365870275        6.91930815638069        4.85391349896743
C            9.02286803459015        8.40732099826026        6.36711419067528
C            9.37248078628418        7.62120522721977        7.47200571903438
C           10.05276201754679        8.16695599814784        8.55815721962277
H           10.30367725872627        7.54012292827888        9.40554266487325
C           10.38729435603151        9.51197411359202        8.54348644779937
H           10.90988515527030        9.94334236698605        9.38945235982179
C           10.05240305187789       10.30346796514432        7.45318118261278
H           10.31322332415555       11.35552699502111        7.44393385421325
C            9.36899908370622        9.75274418369474        6.37639470112307
H            9.09878014813007       10.37935687535434        5.53318349911579
N            8.99975760617164        6.26776078637139        7.44418901054641
N            9.09402886901637        5.55630963121245        8.41333602374225
N            9.07295607557138        4.72173492925298        9.16874900759046
S            4.61709728046556        2.92838684106286        3.50128440213907
C            3.75210118099839        3.34004634147067        1.96841790065392
H            4.52405090688796        3.48651444296838        1.21338093579912
H            3.23211944064550        4.28870700420808        2.10141196125714
C            2.74565717129109        2.27584054881128        1.50529960670188
H            2.55763840828201        1.55833152327594        2.30734787970390
H            3.16096915373071        1.72482102067816        0.65608480967306
C            1.45049052957280        2.93914506951036        1.11033824977527
C            1.44707214090026        3.90014425871291        0.08996761991200
C            0.28372541322424        4.59534828025522       -0.23723640597953
H            0.30240219552068        5.33807611950918       -1.02603692722087
C           -0.88383132743884        4.33801434564728        0.46370386345142
H           -1.78835995679992        4.88426076582137        0.22147096720654
C           -0.89228439778362        3.39306717064544        1.48019802564192
H           -1.80410115668554        3.20381068953588        2.03280237287674
C            0.26891599911235        2.69927489819406        1.79899484899068
H            0.25881921097283        1.97504785002502        2.60649879000870
N            2.66412398615722        4.14891426368237       -0.56464224988348
N            2.75839613598825        5.06281376267976       -1.35270317769938
N            3.04299687955205        5.86001861625079       -2.09131726362501
S            1.37968910436688        0.82495587095204        6.20952408331393
C            2.26261116695192       -0.37208376061994        7.23606922656293
H            1.51954608374385       -0.77561977430456        7.92558673070694
H            3.04380609687537        0.11510281524132        7.81865018760563
C            2.85483178530503       -1.51175336799508        6.40736773042311
H            2.07601585196533       -1.92541079783251        5.76188283733778
H            3.17727913458155       -2.29300309488635        7.10484982961611
C            4.03370604301429       -1.07879692215106        5.57807658598306
C            5.24167610579773       -0.72667524554005        6.19342346798660
C            6.34546184766817       -0.34208616524025        5.43436235327492
H            7.26866149043372       -0.07341425000843        5.93340397421248
C            6.24975639940672       -0.30741096198438        4.05222583350321
H            7.10946657435571       -0.01278658560037        3.46177963065015
C            5.05917252002630       -0.65153643225283        3.42759257648851
H            4.98235844642198       -0.62192358890459        2.34720854774090
C            3.95991838422528       -1.03045692514117        4.18845365218256
H            3.03488142316370       -1.30936814497392        3.69721958371928
N            5.30491128208821       -0.78823136585271        7.59629238442207
N            6.32800330435541       -0.49880685065735        8.17623254169303
N            7.15902137108265       -0.26833520981872        8.89718992503442
S            1.28586480484121        5.41451412749925        3.15895902508869
C            2.29011269113855        6.90238903240900        3.06478760059766
H            3.31649200976683        6.57194384952855        2.90440788454142
H            2.25944978480654        7.46863427795636        3.99374374715514
C            1.84447749748931        7.78135907083617        1.90218011306250
H            0.88892558814395        8.25057009101571        2.15038610381113
H            1.70496810213348        7.15515464660951        1.01571737977005
C            2.90216282940095        8.81874375649289        1.63571584167249
C            4.13803186393805        8.42042946550863        1.11137533668118
C            5.15199976671666        9.34913828852082        0.88625554541591
H            6.10470476695099        9.02337295043455        0.48563322393142
C            4.92444124382542       10.68625341568828        1.17356865498522
H            5.70706184295658       11.41402600917323        0.99168472524920
C            3.70033825754693       11.09369745342654        1.68753168135708
H            3.52035222074023       12.14254032962341        1.89187777802734
C            2.70067534816455       10.15958327545359        1.92887177421353
H            1.74791439733046       10.47717706057650        2.33789889312024
N            4.30439093034071        7.05365956341430        0.82961110025705
N            5.32558727357141        6.63245663520909        0.33980881166046
N            6.17196587229486        6.04206770447395       -0.10690789664133
S           -2.38996196210233        8.58204898476833        9.01219956836447
C           -3.70243521023331        7.73573907224349        9.92531969977710
H           -3.42109768343678        6.70033658516964       10.11190378982723
H           -4.59639913632806        7.73889453586919        9.30660775392277
C           -3.99647852939213        8.44553383164267       11.24890085622740
H           -4.64388203889943        9.30578666839824       11.05454303749326
H           -3.06465473630888        8.81458249209309       11.68454364648536
C           -4.66121037260013        7.49751112242008       12.21639522789626
C           -5.84364616238057        6.83068220647316       11.87054207951450
C           -6.41093164506281        5.88889136608132       12.73030003376942
H           -7.32329963441133        5.38000047663215       12.44210265511609
C           -5.80424175396407        5.61583904604121       13.94680109666082
H           -6.24080146472048        4.87795960751808       14.61000265034644
C           -4.65039636456677        6.29241845920738       14.31545964173114
H           -4.17846428925323        6.08940420166705       15.26928676107602
C           -4.08985988205066        7.22634786005122       13.45424826093529
H           -3.19784813805415        7.76328049848965       13.75406157795676
N           -6.44077195881408        7.14383884783566       10.63862288610801
N           -7.39713102710195        6.51897663127020       10.24126632465859
N           -8.26392187673807        6.05241144951557        9.69869207169485
S           -2.90440292008038        6.79586782724353        4.68298483800511
C           -3.17607865201279        8.19100259968758        3.57002628546965
H           -2.40526943914047        8.95209987674878        3.69444329162209
H           -4.14381148323957        8.62745371017799        3.81806406284857
C           -3.18129720630516        7.67106250613536        2.13327075932330
H           -3.90335585727324        6.85335893758085        2.05657706423359
H           -2.19068860990649        7.27227630419437        1.89760486190534
C           -3.53679316854141        8.76715812929984        1.16430515040426
C           -2.54004512793941        9.45797933431770        0.46829900703937
C           -2.87270636210594       10.46857015940621       -0.43534620273447
H           -2.08972216454498       10.98199197104464       -0.98093718437537
C           -4.20274165813721       10.80774048380285       -0.62543995303170
H           -4.45999130931838       11.59536938661613       -1.32428398390956
C           -5.19983888940399       10.14232118331804        0.07588994676717
H           -6.23923600900730       10.41201643271383       -0.06866937432101
C           -4.86438873190660        9.12746397022457        0.96060521390730
H           -5.64499785234871        8.60461141388197        1.50218335199423
N           -1.20086353716036        9.10026508726156        0.70568553033986
N           -0.31157037843602        9.68230651589359        0.12738420757958
N            0.63433295942402       10.10983844581665       -0.30394350862421
