377
 energy: -581.743174877555 gnorm: 0.000686120868 xtb: 6.5.1 (579679a)
Au          -4.56014962255395       16.13535959712971        6.25543443481283
Au          -6.15924374712766       20.39456427651661        4.86213137522819
Au          -4.59875327609610       15.17042544987403       10.93273716806336
Au          -4.01334405663918       14.26358556802272        8.38957167238500
Au          -3.46329016217659       12.40590259311987       10.51163826628724
Au          -6.25375718692051       13.13406664581695        9.55395999139247
Au          -4.49691605020912       11.60929905431625        7.73908350123209
Au          -5.03259777578199       17.98837942016241        4.08490403619318
Au          -5.54678667918942       19.82808530807363        1.93975857303810
Au          -6.88959168358642       17.98798790813400        6.35113871129097
Au          -1.74895749840657       12.70744131777807        8.04233827008760
Au          -3.41436639280402       13.43727093824646        5.67544195197601
Au          -1.75413266925606       15.55384256102376        7.11874076050190
Au          -3.31346949731211       20.15436348374909        3.98135397719566
Au          -6.23780273463635       13.66894122269740        6.58972088111368
Au          -4.13716141628422       19.06315502828024        6.62067246929856
Au          -6.36475299408376       15.93163449991482        8.63471278237473
Au          -1.81014650410737       14.91027120276198        9.96152158726650
Au          -3.64201226137150       17.10485876960932        8.90038009513842
Au          -3.95878654646422       15.36123660069099        3.43765078169661
Au          -2.27819719901713       17.47809384881906        4.79523983506743
Au          -6.77500777947523       15.69420011296082        4.32611201762776
Au          -3.12550932455969       17.95816814420293        2.05443352765713
N           -4.99111706348145        8.54071940307258        8.11705403731555
N           -0.30568363844518       16.81667495001090       11.92581746087534
N           -9.18157882748755       12.00973502616282        9.77181131269993
N           -1.65731173173780       16.52936565759284       -0.30206934312230
N           -1.59611562163187       18.67141184277268       -0.59079466563923
N           -4.04501396178758        8.91994852060437        6.20671288642219
N           -8.16637489567394       11.86588756556453       11.67481918690371
N           -7.68332382305919       23.12832439959283        4.69166531613163
N           -0.97566975676065       22.00874230975038        4.86874167894718
N           -4.43606143114605       15.55129130092744       14.06798658813246
N           -5.93771921056400       16.83433484208925       13.18448643301327
N           -2.34774958732097       23.13052382509813        3.62814907696244
N            0.43671142344643       14.79704215467679       12.13979643910000
C           -1.96826712884159       17.70598771518168        0.26122139349189
C           -8.02303206142595       12.25346125582237       10.39954966979879
C           -0.11230994332810       11.39289489363629        7.58300391713464
N            0.85269280281229       11.65141721543733        6.68975480532679
C           -4.53457118055240        9.50798337342009        7.30866211210240
N           -6.30922009782835       23.11812679605916        6.36359660686297
C           -6.81335730106509       22.36900422810156        5.37189492475994
C           -7.05020955173550        8.40581189879556        9.45660008485695
H           -7.59162779265272        8.88006404451069        8.63891119488479
H           -7.49235476054356        8.72829495096558       10.39892027275647
H           -7.15928672534839        7.32630083094111        9.37093285678954
C           -5.58389220496676        8.82713147735735        9.41986953595326
H           -5.53977695168874        9.92008459265830        9.51914376231635
C           -8.45901782158970       22.60807752380582        3.57012028514126
H           -8.12611705648150       21.56799816875912        3.45162884674503
C           -0.38783277185789       15.57534565939777       11.42495272527148
N            0.14824057923695       10.19340444481559        8.12482976579690
C           -8.14610201439897       23.36282409287951        2.28279248463667
H           -8.36121145529199       24.42528431920307        2.37753457287617
H           -8.74925420629243       22.95469325464945        1.47236738317681
H           -7.09600958477124       23.23258158297442        2.02058183761242
C           -4.97968758938786       15.93947695262950       12.90425066551012
C           -4.43050313132581       24.41294706172006        3.41019675404793
H           -4.74396239014865       24.05831382671633        4.39063354874084
H           -5.31295367529247       24.53627519131349        2.78390071910806
H           -3.94855628381363       25.38202109179752        3.52610637167287
C           -6.71401040019978       17.49912108271838       12.14280003405725
H           -6.36798964458595       17.05271988345962       11.20237589157608
C           -7.11315507087730       12.04637464049073       12.66687651446361
H           -6.26268298809443       12.45574936760547       12.10598252497726
C           -3.49464039272768       23.39527202902310        2.76581530706924
H           -4.02373126517205       22.43611110276366        2.68762771430075
C           -5.36019656919076       22.58703692391694        7.33602852088927
H           -5.18745307027136       21.54886077256328        7.02631550586882
C           -2.09835159343652       21.91720058041059        4.14187155246312
C           -4.18891781146906        7.54606545655614        6.29217767555807
C           -4.80688232284900        7.29906685873685        7.53254866781678
C           -5.10959553002286        6.00328422106697        7.94028718687346
H           -5.58918110491859        5.79540495357482        8.88718605999690
C           -4.77407156249616        4.97316630006552        7.07935914301970
H           -4.99582975587291        3.95139291787327        7.36375419420849
C           -4.15442386220499        5.21833795630346        5.85036413085034
H           -3.90707942363230        4.38135948170146        5.20818174989561
C           -3.85097065357620        6.50306033607182        5.43547052724876
H           -3.37038409867174        6.67565342342185        4.48208112566186
C           -1.03975937383308       17.94137549467318       11.35841999124352
H           -1.60555125901108       17.51815208011021       10.51937734259948
C           -9.43843857079255       11.36510834807091       11.88742348935981
C          -10.10104179962597       11.46452366204682       10.65056005651843
C          -11.42402531348239       11.05660583440286       10.50886649213044
H          -11.95267712088652       11.13622773009210        9.56875294854451
C          -12.05204107493657       10.54204983111175       11.62934269518348
H          -13.08231115189054       10.21445644002416       11.55602889915697
C          -11.38969012876108       10.43417657692124       12.85600008564714
H          -11.91925573769396       10.02262487084434       13.70705741726379
C          -10.07653608295557       10.84292621245545       13.00833770761192
H           -9.57814196789097       10.75478049027931       13.96426342724001
C            0.04383243585215        9.46663055967696       10.47162524506657
H            0.72672517835849        8.61863055196179       10.46788760381254
H           -0.68177454178887        9.33781609072702       11.27570437505879
H            0.61454475007105       10.37501119377348       10.65976179342473
C           -3.04446649103798       23.80547722452453        1.36713334070173
H           -2.70190997822399       24.83852611352606        1.33993644917101
H           -3.88525850682475       23.69045541442035        0.68231001611312
H           -2.23338463191019       23.15791407026891        1.03594901502669
C           -3.46368222603203        9.67885443341649        5.10312465221774
H           -3.58873720359126       10.73170795598495        5.38517641463450
C           -1.74994842265635       20.08847904810759       -0.27859826245328
H           -2.27042477379344       20.11285509079788        0.68845391536891
C           -1.87762915693853       15.25559011153773        0.37211551405515
H           -2.32413677889439       15.51846991235423        1.33892887165995
C           -1.01661009040542       18.12137883043209       -1.72114764802159
C           -1.06137158755756       16.72738259287831       -1.53503752975012
C           -0.56779635815995       15.85444343005729       -2.50006438235548
H           -0.59980501481943       14.78073032340527       -2.37367844121157
C           -0.02680203387656       16.41464395334064       -3.64373237029988
H            0.36756489753163       15.76583072322190       -4.41678747057269
C            0.02584624795322       17.79988945983698       -3.82539421145338
H            0.46210745952802       18.19635747737004       -4.73455245760063
C           -0.46515864730785       18.67533405015586       -2.87291579993599
H           -0.41356882111402       19.74412318668749       -3.02998242763612
C           -7.75942553244933       24.39200624307389        5.25181146078854
C           -8.49618427140416       25.52899797867411        4.93381453763859
H           -9.18853551504237       25.55219734860987        4.10316146603584
C           -8.31100803975828       26.64699778937266        5.72804139152583
H           -8.86780156237729       27.55046417258726        5.50934996354614
C           -7.42242518965690       26.63990090823015        6.80740703794343
H           -7.30875306078640       27.53798489493112        7.40292141046466
C           -6.68655636821485       25.51397130191078        7.13238865861031
H           -6.00376966921186       25.52368156812214        7.97126153332461
C           -6.86589451816930       24.38511464217205        6.33892068230557
C           -6.83085610743855       17.85196043670026       15.33830065354399
H           -7.57779605666155       18.50681663776244       14.91041114142216
C           -6.64535878537365       17.79295090876611       16.70819889685665
H           -7.25729228240210       18.41195137841673       17.35354727651862
C           -5.68876844257046       16.94965671350537       17.28136011822895
H           -5.58132109195256       16.92980312854399       18.35939847507247
C           -4.87770475543106       16.14039851598422       16.50536969679825
H           -4.14668179361379       15.49007963730743       16.96635795569180
C           -5.05082708984817       16.19934070382319       15.12572986340310
C           -6.02189718990285       17.03905184712313       14.55010220408345
C            0.59496720226541       16.85451343210742       12.97580502329547
C            1.08078812080478       15.54119690203004       13.11343681360171
C            2.01830019553194       15.22015460120144       14.09103920067630
H            2.40657940250796       14.21768415264031       14.20950102178847
C            2.44533942829727       16.24239704404054       14.92015273648714
H            3.17465437670168       16.02846611091254       15.69242507369224
C            1.95812975998012       17.54599109503260       14.78649922306400
H            2.31867600588993       18.31540877294674       15.45887450622482
C            1.02830159271182       17.87562818650823       13.81630647231388
H            0.66070482666272       18.88883100384590       13.72620241488635
C           -6.39454495829107       18.99028243571401       12.10282516743379
H           -6.71905406157283       19.49272508007449       13.01249914152024
H           -6.90293906040756       19.44158845981570       11.25139328050599
H           -5.32048647074001       19.13342482879414       11.98527226663897
C           -5.96856878088460       22.56401645993098        8.73455930694861
H           -6.08696440375252       23.56836738838264        9.13754776961034
H           -5.31237917052326       21.99443933286389        9.39289771364835
H           -6.94324642297228       22.07796499155510        8.70453342426556
C           -1.15798923600545       25.37688705460156        3.74675847085338
H           -1.82959419473313       25.94976922624386        3.12176010835845
C           -1.36650332874752       24.02709141025772        4.01332440379033
C           -0.47544704213074       23.29784923416761        4.82169938793471
C            0.64364340326352       23.90245343828460        5.38639591877967
H            1.33952554368315       23.35618421945546        6.00863603034432
C            0.84086609381286       25.24565095383482        5.11900881864569
H            1.70200885067588       25.74958702138370        5.54165391911844
C           -0.04327521983121       25.96951946606528        4.31317710138482
H            0.15140081252658       27.01913055468971        4.12730899901858
C           -1.96979906480855        9.39688493237862        4.97534323643334
H           -1.46054423928146        9.66517941950570        5.90006341096478
H           -1.56188361903570       10.00248228248922        4.16652899027257
H           -1.77894429966807        8.34725877658746        4.75842278480064
C           -2.04054643112469       18.50911440294704       12.35939300578127
H           -2.71958894024060       17.72266741871903       12.68889981967632
H           -2.62403909573961       19.28885621187485       11.87039239863768
H           -1.54319958076034       18.93480158986239       13.22896630509594
C           -4.75561928071784        8.20868325904190       10.54133934706639
H           -4.66791465527465        7.13005901192655       10.42776393768897
H           -5.22823476927181        8.42243306385300       11.49903003281572
H           -3.75942278857092        8.64983446318528       10.55308961347861
C           -9.39860434832905       12.35638069963227        8.37159007656553
H           -8.42309206316698       12.70456264321030        8.00963134543455
C           -0.37969009453587       20.73926211845674       -0.10678506566958
H            0.19996951675579       20.18849910727369        0.63350700366949
H           -0.50727708982090       21.76455346501266        0.23880776634301
H            0.17220641628989       20.75378116451171       -1.04510399442932
C            0.89407147665281       12.89002308699453        5.91846287689964
H            0.01788221463567       13.46138106790565        6.24997356725084
C           -4.22152734509559        9.44969343001472        3.80052988168574
H           -4.05486500059875        8.44963386110779        3.40479239084035
H           -3.88013775889026       10.18019054328398        3.06681492910995
H           -5.28818472056840        9.59239075408329        3.96405008235093
C            0.97229762462866       20.51413147668463        4.98204472138086
H            0.90426285967984       20.43853929570723        3.89709325732387
H            1.28855436812273       19.55047967102734        5.38132598494866
H            1.71951590488000       21.26356854160952        5.23719953696608
C            2.92470731167357       10.39442599788664        5.91390748085318
H            3.28615518119162       11.10966319751974        5.18753219685798
C            1.76449319387253       10.61149180363052        6.65112219837233
C            1.31041718117272        9.66625048160265        7.58904905435920
C            2.01324763808591        8.48812807297514        7.82265016497971
H            1.68618317801036        7.75823860743830        8.55079053989242
C            3.16655227691303        8.28191432264726        7.08636542655642
H            3.73989681946543        7.37570780886913        7.24188372955177
C            3.61240223098701        9.21657032362151        6.14690054482652
H            4.52059687573489        9.01400075213090        5.59167890508088
C            0.63224721714384       13.38289189175978       11.83933367059606
H           -0.04272055476166       13.17276004092919       10.99856630807846
C           -8.20226868619814       17.19924005285435       12.28298453455053
H           -8.35403327244570       16.12364703216119       12.37326292880888
H           -8.71733523389476       17.55043349435971       11.38877491254613
H           -8.63392822622198       17.69045172417076       13.15303966555675
C           -2.62606224646735       20.78588811417076       -1.31314565774557
H           -2.15930523792200       20.79892084936673       -2.29596734008828
H           -2.80730112524703       21.81237370902586       -0.99800123277720
H           -3.58885273710274       20.28107334932802       -1.38178714391721
C           -0.70343159344083        9.59436179541840        9.14748606060061
H           -1.52829927407051       10.30620944423816        9.28502902985360
C           -6.68895542731303       10.71156933288328       13.27212921298446
H           -7.38900490968731       10.37188179516484       14.03345965551257
H           -5.70169828698189       10.81812438868095       13.72195016593279
H           -6.62851711714726        9.95690860440284       12.48885335877543
C           -9.80052726432427       11.13842948734855        7.54716856194254
H           -9.11823030455093       10.31279372625959        7.74676420222067
H           -9.73898484847768       11.39415935109420        6.48964410253225
H          -10.81618169076939       10.81578395949197        7.76819065359813
C           -9.94639166502738       22.59693020295835        3.91483000029941
H          -10.10053458512855       22.08913277415908        4.86672079027305
H          -10.49142828625843       22.06059293146425        3.13858523299334
H          -10.34636324361529       23.60674498605837        3.98794410789932
C           -3.30794085675398       14.62687273100315       14.13567524556960
H           -3.06464046089642       14.39633429121929       13.08977028312491
C           -0.55569689591960       14.54540157229974        0.64437107633637
H           -0.09872486735804       14.17881006712820       -0.27304421837207
H           -0.74384526630974       13.69973830074259        1.30593247969415
H            0.13613491770277       15.22902708398609        1.13539142923822
C           -4.02644847814989       23.32374963092222        7.27051537573790
H           -3.62497046673606       23.27316985688264        6.25882999019117
H           -3.32278473299336       22.84137171558428        7.94853348591862
H           -4.12865811773965       24.36875842627266        7.55726314118842
C          -10.38792161090823       13.51192536178077        8.25850175498237
H          -11.38093724985900       13.22009405140631        8.59661091150765
H          -10.44588317726470       13.82405324849412        7.21627946285130
H          -10.04286288029351       14.35372313012474        8.85857264322548
C           -0.37308978952671       21.08774073081495        7.06970731490866
H            0.29170766619854       21.90452816582064        7.34495442304135
H           -0.03030026265212       20.17677978333161        7.55950767072768
H           -1.37765584940835       21.31497260743402        7.42562068633159
C           -1.28204471316653        8.26755872144342        8.66573633384988
H           -1.85779103793972        8.42034299209158        7.75466026871151
H           -1.94217446973475        7.86471199715615        9.43239198278174
H           -0.49885459920913        7.53874700645216        8.46634758529488
C           -3.69788627649185       13.33044955149987       14.83683649796370
H           -3.91734915715584       13.49422714573514       15.89033470927621
H           -2.88040078315992       12.61543120979641       14.74976497294198
H           -4.57370264562572       12.90050931670007       14.35418851523095
C           -0.39486875441852       20.86292355196650        5.56159765908143
H           -1.07502212757524       20.02795759935753        5.35169843146352
C            2.14080338904464       13.69995835700740        6.25939770364980
H            2.23452774374979       13.79402307450105        7.34106047437433
H            2.04187706839556       14.69641278796219        5.82881192238469
H            3.04285128401479       13.23451216080044        5.86617225806553
C           -2.09930526763126       15.30333623898601       14.77722891016300
H           -1.88689539185641       16.24442158723038       14.27223345812834
H           -1.23120406115914       14.65244554665322       14.68231711670522
H           -2.26715291394357       15.50397233746000       15.83366216736637
C           -0.08563886435695       18.99044616310657       10.79729813724784
H            0.45248999846203       19.51026312180455       11.58788673862456
H           -0.66406468787270       19.71857044722223       10.22861207135365
H            0.63493351259099       18.51593321605329       10.13193874979537
C           -7.55154383110606       13.07788212168446       13.70331590646732
H           -7.81210051992666       14.01116633488627       13.20401410160448
H           -6.73580030560972       13.26968974694903       14.39850544061189
H           -8.41506811348608       12.72946247131530       14.26730432473213
C           -2.88046565502292       14.39488263560315       -0.38896226538152
H           -3.81187831988697       14.94508411530984       -0.52336400806638
H           -3.08763983846339       13.49735584878822        0.19346991504082
H           -2.49968296579745       14.10041370945744       -1.36520082284354
C            0.21600979325806       12.51212750140606       13.02032544631957
H            0.78169971073514       12.75458021450074       13.91765227201038
H            0.38354764695824       11.46446191354930       12.77535922670290
H           -0.84667978920600       12.64561047706489       13.22141288648968
C            2.06652759137143       13.13701179252744       11.37700051664546
H            2.31109717426477       13.81459329181904       10.55938914701493
H            2.16083074226973       12.11122891768820       11.02236372335951
H            2.77778996328212       13.29189928042581       12.18632478519683
Au          -7.70997772915854       18.34278052206394        3.42946901495573
Au          -5.85035126620182       16.82725579071466        1.71662848476316
N          -10.42686983671458       18.58751508510811        1.87951643380397
N          -10.79964143490337       18.25930122848069        3.98274610621372
C           -9.83263934685158       18.43264477060703        3.07183224940522
N           -6.36339406790496       16.43990192187441       -1.36114224964079
N           -7.11830279997871       14.75976415666397       -0.22486994740966
C           -6.41543537268549       15.89833298589351       -0.13479189660171
C          -11.80280980359150       18.51859177924390        2.01214684572433
C          -12.85158001288134       18.61898141643019        1.10274094989045
H          -12.68475079258578       18.78734516574933        0.04738040427954
C          -14.13654770600514       18.49508732465743        1.60102962048409
H          -14.97768917682828       18.56777956490436        0.92182091117789
C          -14.37660534879245       18.27787915263553        2.96114884842627
H          -15.39900182145784       18.18576935457222        3.30805470239212
C          -13.34049390964922       18.17857134336488        3.87270807824042
H          -13.54358534558054       18.01016730281044        4.92156119114928
C          -12.04453921990133       18.30307229888911        3.38086531361608
C          -10.51639618406648       18.03129871812544        5.39487645069229
H           -9.42321271788878       18.07531648549320        5.47745688750573
C           -5.60643893901388       17.65654654560076       -1.64209619177539
H           -5.15578650273494       17.93837584200537       -0.68106147684284
C           -9.66900732936189       18.76351853221087        0.64695863936417
H           -8.61512435459169       18.75622240844691        0.95574383242484
C          -11.09804683354816       19.14424732375617        6.25983560500351
H          -10.77653204625119       20.11401346063777        5.88018460714889
H          -10.72920578152667       19.02604472995041        7.27840791898100
H          -12.18599643686045       19.11576826522859        6.27557715066949
C           -9.90565316566761       17.58161660426224       -0.28994264480625
H           -9.66898973073907       16.65192688135816        0.22720504179566
H           -9.25862745496643       17.67026701426831       -1.16145522041771
H          -10.93971860318258       17.54114798264023       -0.62724237122541
C           -6.52585161556737       18.78705492017528       -2.09061911369046
H           -6.95928143845533       18.58812115350397       -3.06916066597205
H           -5.95865788508285       19.71670901718235       -2.13365904574128
H           -7.32835290253163       18.91562937778700       -1.36611194828760
C           -8.80207341380779       13.71210992910980        1.23977827400801
H           -9.27507943016656       14.69173508966095        1.30666714543230
H           -8.90382583658770       13.21232299555810        2.20301976586933
H           -9.31576512096681       13.12318070779725        0.48211551485765
C           -7.32028573166459       13.87670995210297        0.92016693410121
H           -6.84730533197800       14.39463043424212        1.76395558273319
C           -4.48458595499825       17.37147872377437       -2.63708993040013
H           -3.88110338773638       16.53454748015297       -2.28804102446579
H           -3.84683865698249       18.25055517484135       -2.72073648466652
H           -4.87648168056423       17.13256470026731       -3.62398082238094
C           -6.59353822492240       12.55211379992905        0.70793805804235
H           -7.03986123753781       11.97711781578366       -0.10169317722378
H           -6.64365422413169       11.96469095386525        1.62390565369918
H           -5.54663877376434       12.74009296386918        0.47087007645246
C           -7.52801102179903       14.54877330983133       -1.52942893697753
C           -8.26741017063455       13.53996579924567       -2.13917899988727
H           -8.64485444610456       12.69038744572993       -1.58627360885234
C           -8.50924842155933       13.66336843417089       -3.49607174627802
H           -9.08202691089883       12.89690271665757       -4.00456792397070
C           -8.03584315883947       14.75681171302986       -4.22752978283755
H           -8.25384534903705       14.81661660862784       -5.28724218465244
C           -7.29804547705002       15.76378134678339       -3.63027190303998
H           -6.94480138606299       16.60611818385247       -4.20958766779187
C           -7.04307266944882       15.64451900139178       -2.26744309097215
C           -9.97500045451728       20.11647030013724        0.01164291116485
H          -10.99187813917963       20.15734545585936       -0.37430775188061
H           -9.28223423632765       20.29531062860224       -0.80973107600506
H           -9.84930405898945       20.90556736884234        0.75265336003054
C          -10.96534696814937       16.63795725480377        5.82131014150111
H          -12.04815518907392       16.53407926327914        5.78038995214315
H          -10.63193009750474       16.46247685478500        6.84392020375539
H          -10.51186045426626       15.88786834435000        5.17350747593603
Br          -3.34667517068540       19.75943424448134        9.05927198899604
Br          -2.86477777131753       12.94092246126518        3.12406679888906
Br          -8.44833904208147       13.80368486343577        5.08546774678167
Br           0.09881333412576       16.85444131440432        5.75562567649598
Br          -2.95990644054513       10.80310599071861       12.33480196276191
Br          -8.45040265035326       17.53552762207413        8.45728432522693
Br          -5.75403398200996       21.56598206631707        0.18672173189929
C            0.74073250148646       12.61144045405032        4.42696405793881
H            1.57590738540215       12.03075974769135        4.03933228693530
H            0.69328931519867       13.55889799274858        3.89098014242668
H           -0.18437245906140       12.06465476094946        4.24537399871977
C           -8.36226433425231        8.20740810949957        3.26319140167077
C           -8.01413631661586        7.66601261344005        4.49970596090159
H           -8.11276996373120        6.59871754323363        4.66671750754154
C           -7.54247345757107        8.47994614467109        5.51767799052646
H           -7.27430250302689        8.04359407694693        6.47305156971493
C           -7.40818146107233        9.84725689620411        5.31309574360104
H           -7.02885380646683       10.48383276127104        6.10527602655754
C           -7.75392333983674       10.39416580057282        4.08483171988915
H           -7.65811488256124       11.46154987520525        3.92286308175600
C           -8.23077719978972        9.57900182626626        3.06771183273194
H           -8.50195187038351       10.01681920044469        2.11261102665117
C           -8.87403129566333        7.31470424889433        2.16732301613429
H           -8.15258474131018        6.52419399843464        1.95453923554055
H           -9.05318602671948        7.87990753785193        1.25309876848906
H           -9.80886638747001        6.84155418075312        2.47283517277955
