349
 energy: -558.287371695919 gnorm: 0.000186046765 xtb: 6.5.1 (579679a)
Au           9.66774204936632        6.02459011689429        7.97182664400467
Au          13.49728620745320        7.06772927139678        4.51009954130181
Au          12.56578534613815       10.08030004623467        6.35012941600044
Au          10.81473268081667        7.85711812445498        5.22836287631053
Au           6.99673545806337        4.93965840807089        8.60296280940516
Au           7.97162874198519        8.40143821399541        3.33592793717675
Au           7.96010555808424        5.24793900761404        5.74399795410734
Au          11.38693280316531        1.97537509213076        6.35050576175108
Au           9.23135046226364        3.57735563828471        3.58732275979030
Au          10.88207000208031        4.87449149837691        5.66286793415350
Au           5.46434073801682        7.02552658563476        5.73464972179347
Au           9.14850532705412        3.31500320393073        7.60420263810262
Au           8.19763440866405        8.14470240610017        6.17896124270092
S           10.39897417482575        1.62559277850069        4.23943348708733
S            4.93062248269250        5.93528913718048        7.72961498098614
S           12.39220263561674        2.15071024554721        8.45314800666926
S            5.65745128067587        8.08873622666544        3.64411693149111
S           10.24174534527143        8.87474781098749        3.04768310999972
S            8.03008840506758        5.54348392043805        3.12601557247352
S           14.18492704666038        9.29258112393877        4.83932036678953
S           12.91526600022957        4.82748178699916        4.16588019007084
S           10.95210236644820       11.05371324760555        7.76196002381259
C           11.76113263541761        0.66818765872605        9.27385463856815
H           11.95959104307793        0.78819176179613       10.33889217648396
H           10.68261651528764        0.58390296019455        9.13110431039510
C           14.20137083233463        4.01546078766992        5.14420710667860
H           14.29603535027365        4.48117895395427        6.12557089702958
H           13.88798925318820        2.97965600954961        5.28462324827006
C           10.73753687634114        7.63658416608109        1.82663009591284
H           11.77601589564299        7.36451402710369        2.02094575320627
H           10.11993018112681        6.74266978559395        1.91562888296888
C            4.94133044166310        9.73903825372985        3.81802027179112
H            5.43892269480109       10.29105058063035        4.61446218310618
H            5.13283925400716       10.25336530404914        2.87638142709217
C            3.43663182433218        9.66182866164766        4.04719229781422
H            3.02796036378422       10.66770355370702        3.89030386424357
H            2.99605821947844        9.00967106281839        3.28762527050170
C            3.01042727565528        9.20019603740338        5.41960914862570
C            1.90472522223204        8.36021184469076        5.54721480912022
H            1.41401014519349        7.98025760582725        4.65750144307296
C            1.40615554859000        8.03086475516626        6.79939736437124
H            0.52469049070370        7.40493995727561        6.87997654580909
C            2.01720322084457        8.52275235137528        7.94520994874433
H            1.61184421910005        8.28604590101783        8.92186238971486
C            3.13680475367306        9.33332787302626        7.83007795636519
H            3.62489247796606        9.72248132046274        8.71698040427135
C            3.62624367242858        9.67605910849742        6.57773757538724
H            4.48224101567973       10.33848182459938        6.51456810076086
C            4.01579602076000        4.45974938593370        7.22797075736651
H            4.63302115480541        3.81913450705980        6.59859509173322
H            3.77929440768436        3.91595238356505        8.14311075098168
C            2.73525832271146        4.85337657219585        6.50087380931853
H            2.21532659640177        5.61621693330693        7.08523681648773
H            2.99691625034571        5.29404758791085        5.53417248330603
C            1.84556888884678        3.65264228346400        6.30362758744931
C            0.66458541184133        3.52432164160158        7.02818410288529
H            0.37575929517670        4.29955745966238        7.73021090538555
C           -0.15275982658710        2.41734189307629        6.84759153721829
H           -1.07166614992114        2.32820726602578        7.41590297570786
C            0.20149160055463        1.43168776351693        5.93750197778308
H           -0.44055564691366        0.57107802191083        5.78977226453958
C            2.20341642054336        2.65315927899954        5.40214279601864
H            3.12381093100249        2.74009521943304        4.83508549011314
C            6.46571348862730        5.05190017240600        2.37588328302805
H            5.91372335619700        5.97555132541842        2.19953602940259
H            6.67359573528225        4.58144400738190        1.41436947710673
C            5.64044510386949        4.11373000356260        3.25027910663917
H            5.63894893617283        4.49818239711405        4.27666171406760
H            6.10702784167036        3.12485430696360        3.27059731181737
C            4.21917086542912        4.02492670693586        2.75558572756633
C            3.35952135615976        5.11049853499601        2.91724322255361
H            3.72483292317866        6.02193709159636        3.37894056450730
C            2.04256896124371        5.03455756356500        2.49078363829878
H            1.38183863404539        5.88295574837709        2.63064128868602
C           15.53536807966368        4.04912391010914        4.39960494761681
H           16.23707219313275        3.40569916728403        4.94095623462044
C           16.11632868049520        5.43605641376027        4.29514632614087
C           16.53152940893147        6.12015397742487        5.43895236818630
H           16.41463803967003        5.66001270638774        6.41402490607293
C           17.09882694371214        7.38196105579664        5.33758982884784
H           17.42755981393047        7.89850530765797        6.23244529415004
C           17.24816670412814        7.98372443877452        4.09580058531840
H           17.68939463498553        8.97052561815728        4.01952593536027
C           16.82659513903887        7.31768752901449        2.95405003694115
H           16.93674693971185        7.78258469216401        1.98088258623072
C           16.26445824231327        6.05160203991018        3.05191209047440
H           15.95107806523831        5.53046481789549        2.15402296020427
C           11.81538084753129       11.69419274249675        9.20557284036141
H           12.37864870708859       12.57435036817168        8.89361373120328
H           11.04708112446137       12.00575751647104        9.91475984580021
C           12.74971208832668       10.69304346056653        9.87906247484452
H           13.53696037277827       10.39622992658211        9.17927927276139
H           12.18099255810747        9.79478495805854       10.14281559833024
C           13.33763116768067       11.31801381139676       11.11670263448831
C           15.11852603945804       12.50310373033635       12.22593394321712
H           16.10861337656738       12.94372330753319       12.19926308130788
C           14.60985607695413       11.88094458726025       11.09431257567340
H           15.20364974946383       11.83539878267205       10.18773568271655
C           11.58570358485414        9.36702186728506        0.22941214838517
C           12.93366320469632        9.08100437495391        0.02154918686628
H           13.26598253789449        8.04866437196520       -0.01742789517630
C           10.60152289056248        8.24261163925331        0.42961448877564
H           10.78863097186277        7.45810064998435       -0.30953042357192
H            9.57776323284778        8.60021867530145        0.29317461407784
C           13.74654523995535       10.09888317187286        3.28198525192822
H           14.46530683602714        9.74080491675031        2.54442358815178
H           12.74967765822123        9.79345108098884        2.96300186135618
C           12.70749935683056       12.25787473930613        4.14734660090702
C           13.84312454807775       11.61708258689356        3.39060329416764
H           14.79801798859554       11.88541978607095        3.85043657188248
H           13.84295453596811       12.01462949547782        2.36879564269664
C           11.38041861201264       12.01500007970209        3.78828008231536
H           11.15338523241716       11.32639439880807        2.98192925095075
C           12.57811484645575       11.39777427706280       12.28196275490172
H           11.57603395351067       10.98228774170005       12.29934694588249
C           14.36201561790153       12.56833462534381       13.38816615357170
H           14.76111006463499       13.05523909274729       14.27018628106237
C           13.08852557095153       12.01467779253330       13.41419364709181
H           12.48890586300489       12.06746730990916       14.31609169455170
C           13.85102232264322       10.10805018378303       -0.15001775043655
H           14.89571040555248        9.87458461043988       -0.32237490249538
C           13.43005916272340       11.43160817437629       -0.11177057408822
H           14.14400036568884       12.23323801818324       -0.26132457703328
C           11.17233957881685       10.69501632948250        0.27749558220045
H           10.12553225977547       10.92677136443447        0.44091850096760
C           12.08965569961543       11.72265570854193        0.10433211815466
H           11.75568872261332       12.75348832258990        0.13508571083334
C           12.11256478716120       -0.93202372083151        7.34091974659184
C           10.81425281888446       -1.32597411987153        7.01348554604640
H           10.04978393704455       -1.35066174650485        7.78216525704061
C           12.46966768931141       -0.58442765397357        8.76298582819155
H           13.55041318323182       -0.44527121673739        8.85369017320746
H           12.18144054935659       -1.41604429445973        9.41543522581123
C           13.08250061827739       -0.90792676984053        6.33922294824848
H           14.09745506768252       -0.61167526457765        6.58076697839437
C           11.47398966145515       -1.69033338622699        4.72877877050015
H           11.22840960995307       -1.99592114941812        3.71836257948760
C           12.76613562155762       -1.29252256187822        5.04243973675695
H           13.53757369756249       -1.29604314211565        4.28055573011633
C           12.96943492733178       13.16417151590728        5.17581890006514
H           13.99520217437699       13.37326592183320        5.45878450443361
C           11.92962286255389       13.81806624441615        5.82245506256515
H           12.14886413303101       14.52582464182484        6.61390172178846
C           10.34270563548943       12.66038132800414        4.44311609866624
H            9.31751415623802       12.46118605374076        4.15012857297024
C           10.61465383070265       13.56852194052722        5.45715528179606
H            9.80332751904789       14.08629684121095        5.95565133100273
C            3.74719275163163        2.87310031687167        2.13429633203436
H            4.41008503604662        2.02754694030051        1.98919459553307
C            2.42820935234123        2.79751128331332        1.70765018579417
H            2.06872087952536        1.89147541221566        1.23305417255217
C            1.57239667328374        3.87417193722412        1.89054240552093
H            0.54110636736001        3.81116425497049        1.56347448928076
C           10.72121721946564        2.35736405829647        1.02067505041585
C           11.82601439971453        1.55429533041280        3.13534218571834
H           12.36423424347946        2.50422446932333        3.14821237050085
H           12.48212182654977        0.77556727867946        3.52196518552379
C           11.38236803785348        1.19863519750889        1.71835510719528
H           10.70561735798571        0.34116189964787        1.75864475389364
H           12.27245501071349        0.90116435447181        1.15358215589004
C           11.46191342379623        3.49922911133275        0.71830311028930
H           12.50892563214944        3.55420956715877        0.99707722607605
C            8.78999996616582        3.36912059940450       -0.02172278340548
H            7.74914457735850        3.30744569786311       -0.31894491492702
C            9.37763486434298        2.30431331486446        0.65072568509657
H            8.79580264902438        1.41421556022632        0.86297602848817
C            9.53687745505337        4.49783500436183       -0.32573013439028
H            9.08178018781379        5.32513997642694       -0.85782391153938
C           10.87415891009548        4.55753176200489        0.04416387451969
H           11.47279802430187        5.42478660349289       -0.20897847640351
C            1.37988699764642        1.55343983853664        5.21411130654348
H            1.65655709506091        0.79135802816119        4.49433873490000
C           10.49815438380536       -1.70130430310959        5.71625304314773
H            9.48911863168825       -2.01784074505102        5.47709079280186
Au           5.83861425395176        4.98314321995652       11.43683711204284
Au           6.76778255853474        1.97048738864015        9.59802640875095
Au           8.52120377764852        4.19282002137507       10.71767555939628
Au          12.33953800225864        7.10911200152841        7.34271502672945
Au          11.36572240779526        3.64805459094018       12.60728751794950
Au          11.37659838452762        6.80035566664689       10.19971247782313
Au           7.94968362953248       10.07372626175401        9.59286767404282
Au          10.10624015729360        8.47218074088926       12.35554849011034
Au           8.45433667404136        7.17438168720737       10.28139620506184
Au          13.87237971278865        5.02367445193419       10.20650600723537
Au          10.18757090690446        8.73414737657351        8.33782202902016
Au          11.13759374141855        3.90363699136751        9.76471098790504
S            8.93933061322594       10.42413638313810       11.70289867849307
S           14.40675971242620        6.11304870510661        8.21142412091912
S            6.94214483391009        9.89697578844826        7.49130772325833
S           13.67943541352539        3.96069509839132       12.29738887450043
S            9.09588600321299        3.17423439215952       12.89717071108267
S           11.30698524708527        6.50577625236651       12.81776607412068
S            5.15058325489558        2.75799522056534       11.11097114183982
S            6.42067836126166        7.22394628940011       11.77819304362479
S            8.38061418790885        0.99771247774463        8.18509044120583
C            7.57195135398392       11.37953929270587        6.66974850533750
H            7.37290817878760       11.25914241865714        5.60486666889858
H            8.65049595322490       11.46451128651746        6.81182102789912
C            5.13551934055308        8.03508577075539       10.79789309606781
H            5.04173455338232        7.56853495566438        9.81684624495544
H            5.44918808430152        9.07071295895531       10.65683195299887
C            8.60111250721352        4.41122339739570       14.11978751137086
H            7.56149695638921        4.68104266729982       13.92842192211673
H            9.21657953351067        5.30644486120856       14.02909259317420
C           14.39562247835092        2.31053547922843       12.12254207982271
H           13.89772643057361        1.75882835985668       11.32607923161241
H           14.20460705837614        1.79577009796067       13.06403784711515
C           15.90020901917675        2.38810000949938       11.89275534245816
H           16.30926099279876        1.38239458373195       12.04974398605247
H           16.34087883254674        3.04056562970815       12.65200538654488
C           16.32595803014912        2.84945028591797       10.52009377543129
C           17.43223293670213        3.68862094019437       10.39199983774589
H           17.92349135590348        4.06838039107660       11.28149699382792
C           17.93068366298482        4.01738419734360        9.13961964446168
H           18.81260247380139        4.64262298971786        9.05866267401952
C           17.31895097961205        3.52571371768326        7.99407432332184
H           17.72427602005667        3.76184265768480        7.01726885034875
C           16.19873261831794        2.71606781707727        8.10968340868276
H           15.71010148515353        2.32713164594250        7.22298642771264
C           15.70939253462773        2.37391919490287        9.36222558355477
H           14.85289447728742        1.71216889695732        9.42571735624262
C           15.32248824184782        7.58827547281741        8.71249731117073
H           14.70539676919619        8.22988561916588        9.34098932570260
H           15.55983364983131        8.13113711058155        7.79701038802032
C           16.60240981265150        7.19439727527760        9.44054761172220
H           17.12227444407538        6.43097747971664        8.85688463401246
H           16.33996529858494        6.75435917974578       10.40732884441876
C           17.49271942054731        8.39469475625399        9.63773084266630
C           18.67469630791143        8.52145941323879        8.91450865247180
H           18.96379850559245        7.74536299448370        8.21354404495074
C           19.49266721377521        9.62798198796054        9.09509677779820
H           20.41238487121858        9.71586595579074        8.52789972394476
C           19.13797310123485       10.61479998524038       10.00375154358279
H           19.78046627430249       11.47508554650159       10.15144417871078
C           17.13451362604220        9.39528055649429       10.53785805006598
H           16.21340877688896        9.30950936920182       11.10395657187063
C           12.87168280595782        6.99747572630491       13.56726818782095
H           13.42294334183089        6.07367607809812       13.74512383448002
H           12.66409243387274        7.46961432242186       14.52802444020760
C           13.69775186530098        7.93363824670668       12.69144706865955
H           13.69851324669260        7.54782965825586       11.66558035506662
H           13.23217386543807        8.92296016184454       12.66998677215362
C           15.11933376744517        8.02168455616210       13.18541212551082
C           15.97827357461921        6.93558679982556       13.02355678485818
H           15.61212205085350        6.02416765057782       12.56250335421030
C           17.29557884464439        7.01095782634783       13.44904030171651
H           17.95574514607370        6.16215118240250       13.30898602611494
C            3.80092430317197        8.00227505271553       11.54139288036322
H            3.94117039091959        8.42463470156621       12.54006065202413
H            3.09996487071971        8.64586597788902       10.99926774769231
C            3.21914142334529        6.61568259583074       11.64584782487015
C            2.80664750140223        5.93049759547570       10.50170508687310
H            2.92631282653905        6.38947239974706        9.52641206312279
C            2.23846080726078        4.66908510861363       10.60298765648548
H            1.91197274777001        4.15163926013478        9.70783595988171
C            2.08533219079803        4.06887870711204       11.84506108863870
H            1.64334482137227        3.08241287781048       11.92127616197709
C            2.50406635305243        4.73606259496893       12.98718248578473
H            2.39088552619311        4.27240582372357       13.96059033015889
C            3.06723576239822        6.00168360779940       12.88937871458010
H            3.37846209161777        6.52367924537456       13.78752004110759
C            7.51622033951204        0.35557422404362        6.74293211564260
H            6.95191286490414       -0.52329496385316        7.05662681042793
H            8.28405989331913        0.04167966765813        6.03429304579344
C            6.58304591708985        1.35651381156664        6.06748147428118
H            5.79470003970744        1.65375890996394        6.76583536052420
H            7.15226449216601        2.25456099071608        5.80408916100844
C            5.99731972984442        0.73075110217622        4.82919918404474
C            4.21898540178043       -0.45585548072007        3.71751571405243
H            3.22902789419053       -0.89685903030986        3.74265037300996
C            4.72526456648172        0.16738758719241        4.84962156928800
H            4.12973388830656        0.21340671970534        5.75503313762306
C            7.76333717536583        2.67678543967290       15.71800000512764
C            6.41484453544629        2.95708537920489       15.93007771147524
H            6.07855090242573        3.98803131370872       15.97169403537891
C            8.74242148180282        3.80539244488436       15.51637883236692
H            8.55353434114882        4.58889583721235       16.25614332344425
H            9.76793094359932        3.45196448033430       15.65059388563771
C            5.59233221158686        1.95250089953812       12.66779872688805
H            4.87544894883010        2.31118890337675       13.40687859496113
H            6.59007802045092        2.25770198036675       12.98424725442662
C            6.62861743334182       -0.20710055377212       11.80084179762873
C            5.49503205111069        0.43425901257084       12.56014389345324
H            4.53891549388691        0.16596529024485       12.10283695511560
H            5.49769293741078        0.03721784095597       13.58214731869692
C            7.95656190202493        0.03456405096729       12.15751600223837
H            8.18560254406806        0.72254143993739       12.96382758715181
C            6.75907148389363        0.65041586145073        3.66542995615644
H            7.76103583546827        1.06626653319166        3.64963986063561
C            4.97775060037719       -0.52176524067429        2.55679685091924
H            4.58056748740875       -1.00962877008499        1.67444354107805
C            6.25105943402405        0.03239874906821        2.53273093190043
H            6.85243374584118       -0.02092522214621        1.63203295070266
C            5.50206760867291        1.92611082608122       16.10249507332504
H            4.45694162730500        2.15512005589516       16.27812730245564
C            5.92814843887686        0.60429954673250       16.06073791102282
H            5.21782435258768       -0.20041945941289       16.21092958703927
C            8.18185180790792        1.35052236309239       15.66660795775785
H            9.22911503149874        1.12320151704103       15.49991059455271
C            7.26910353479329        0.31894987068112       15.84049786698946
H            7.60705624389090       -0.71049710918095       15.80697924517980
C            7.22118239304642       12.98056615752275        8.60227587844357
C            8.51940603703263       13.37618314330694        8.92803163973075
H            9.28314771605535       13.40067540795388        8.15862892173558
C            6.86288450825159       12.63175130226637        7.18079813898499
H            5.78217077411563       12.49152971976846        7.09135857494657
H            7.14960239325552       13.46328876019409        6.52758996586344
C            6.25227947585935       12.95647271920058        9.60497190643090
H            5.23740631759987       12.65884802803293        9.36477093482114
C            7.86145853619492       13.74270320533105       11.21289805402696
H            8.10760950558695       14.05003010417881       12.22264701042704
C            6.56947890445502       13.34297163620075       10.90098681356212
H            5.79876074130498       13.34663903526362       11.66359866443402
C            6.36403962440388       -1.11260692686422       10.77235211374425
H            5.33758164257108       -1.32084601491804       10.49126919624999
C            7.40214654213858       -1.76688615187916       10.12335186849627
H            7.18087764267439       -2.47403984247169        9.33192796264516
C            8.99254701593526       -0.61122118398028       11.50036504619946
H           10.01843164732043       -0.41297502372163       11.79156174829928
C            8.71799631471564       -1.51852066150580       10.48627205061638
H            9.52798609704410       -2.03652658891874        9.98584378533343
C           15.59237438089747        9.17342763744533       13.80604869773234
H           14.93003848308954       10.01936826100600       13.95139625649594
C           16.91170180988845        9.24844911879444       14.23173118154152
H           17.27200905309340       10.15444466907650       14.70578477673356
C           17.76682663399262        8.17129622558280       14.04852344130259
H           18.79840487841648        8.23388368529919       14.37476512638359
C            8.61620520518561        9.69110122860304       14.92131173392458
C            7.51234365747463       10.49653547793754       12.80696798950487
H            6.97300988667272        9.54724837569524       12.79343684882237
H            6.85721509427688       11.27625995858911       12.42068675528882
C            7.95613532606929       10.85080865498499       14.22422998607034
H            8.63360897051508       11.70774403483451       14.18465068180773
H            7.06621281025170       11.14864401614083       14.78907304363664
C            7.87489892215131        8.54911774718550       15.22177971760208
H            6.82819018940916        8.49461439318172       14.94177179619428
C           10.54604040030053        8.67787938528391       15.96485314847651
H           11.58659345621872        8.73900527928535       16.26324089471581
C            9.95940820291102        9.74345013727822       15.29275357033121
H           10.54170464018065       10.63357535317918       15.08190275375789
C            9.79854679704886        7.54907622351560       16.26699753569470
H           10.25286791696636        6.72118484675711       16.79884211898264
C            8.46166360485001        7.49002145127838       15.89554321183229
H            7.86255196338055        6.62264671925839       16.14716179536989
C           17.95857011521226       10.49462690346269       10.72576656046516
H           17.68151727409415       11.25768246241380       11.44436221057608
C            8.83635054863362       13.75344693210848       10.22449020417136
H            9.84524347455698       14.07149395957710       10.46224218761548
H           15.39451503544189        3.62703612898597        3.40090906891664
