349
 energy: -502.732416192482 gnorm: 0.000570840515 xtb: 6.5.1 (579679a)
Au          -0.00008736874707        0.00014625641119       -0.00011295170164
Au           0.63549050206579        0.60531560682724        2.80579267361590
Au          -1.95037585763418        1.18286708010437        1.61959481899167
Au           0.30375993092781        2.82211775319285        0.58127378634607
Au           2.69425763352445        0.70669724879810        0.79394947825201
Au           1.75981347586225       -1.93270031556259        1.34993779475194
Au          -1.25340990736244       -1.85186623426738        1.98716051081659
Au          -1.67915610346049        0.78056670009746        4.62179826915475
Au           0.43805713932998        3.57898532723813        3.42205028508944
Au           3.49335910829934        3.28835684606181       -0.65042821327737
Au           3.85756405344330       -0.82578795756488        3.20332597265242
Au           4.69884286754825       -1.50518996492377       -0.40414134817897
Au          -0.10985415731666       -4.67937332655891        1.77650792631718
S            2.17890337417734       -0.12202341306115        4.68216181634628
S            5.59130350456195       -1.61146774803407        1.83321498879420
S            4.08685101103416       -1.99493388889593       -2.66735117598560
S           -1.89802010037632       -1.55023054470669        4.40656120269129
S           -1.31646273140209        3.09763354275887        4.92760910793575
S            2.12823239094025        4.17932227174553        1.88671343457098
S            4.91264931263987        1.43165988400161       -0.15887880370077
S           -2.38654837535746       -5.24355444829136        1.46987320200694
S            2.16878276332406       -4.26009029121403        2.23079271793831
C            2.79138585084809        1.34359158107831        5.53512210691348
H            1.89899175796320        1.88505311552437        5.86564463848415
C            3.59414401514827        0.91847525803844        6.76194293659969
H            2.98788792885618        0.25467475721465        7.38395233780003
H            4.48135291923795        0.36287781586870        6.44163451341211
C            4.00774050887194        2.15576725499114        7.56547083675395
H            4.61020356989907        1.84874084172676        8.42514047467930
H            3.10964644553181        2.65510814820549        7.94701398510885
C            4.80518221089411        3.13270865486198        6.69777434204058
H            5.03835961977241        4.03105937338058        7.27668029288639
H            5.75204251055691        2.66914564002811        6.40040228465980
C            4.01455115477311        3.51587743064948        5.44557478857392
H            4.61186025256051        4.18060955975029        4.81532905309916
H            3.10518428749286        4.05662356307456        5.73100253335044
C            3.62983784639719        2.26295370310587        4.65818745860827
H            3.06790211028310        2.54374437964239        3.76462688038176
H            4.53042516131334        1.73227594984356        4.33126700589296
C            5.65464389477491       -3.38182850281639        2.20792109789644
H            4.65830898917049       -3.82019832246379        2.07264456821058
C            6.63609271499186       -4.05605963181097        1.25571813279443
H            7.61520710772312       -3.57339501624501        1.33589641262793
H            6.28482059364078       -3.93175515269524        0.22784373009050
C            6.75411143700256       -5.54659720558818        1.58246734139392
H            5.78375724322354       -6.03036129402701        1.42537219186967
H            7.47599660523901       -6.01218472075841        0.90555375078647
C            7.19656684728400       -5.74749070417885        3.03301774151593
H            8.20087395446239       -5.33280201460142        3.17067456517991
H            7.23980262329931       -6.81665760476380        3.26012921710881
C            6.22183924860132       -5.05803623064708        3.98916106496690
H            6.56709391264357       -5.17351840775717        5.02054202872671
H            5.23721932721319       -5.53145885953791        3.90938806738946
C            6.09742809041883       -3.56908243318771        3.65611970032822
H            5.36598253843979       -3.10216044945585        4.32223427509268
H            7.05783301882023       -3.06724335849626        3.81118382600520
C            3.94276609477332       -3.79785438199592       -2.72523765975789
H            3.39586529638657       -4.01047628889861       -3.65175344979572
C            5.34236828706051       -4.40081026814356       -2.81354354872822
H            5.90844826772748       -4.13011537111641       -1.91637211613937
H            5.86477063831590       -3.98034307444356       -3.67684684039671
C            5.26533084141330       -5.92477291857727       -2.93919471109026
H            4.76460566152283       -6.18882233238762       -3.87690170098829
H            6.27737432140936       -6.33848022732786       -2.97056488795256
C            4.49680855109742       -6.52665244579486       -1.76159944903410
H            5.03968528627636       -6.33142809014915       -0.83065524019962
H            4.42045698158128       -7.61084916105062       -1.88469552200000
C            3.09667942073970       -5.91932988440716       -1.67038482971294
H            2.57313352789017       -6.32158475317294       -0.79809631489081
H            2.52154509322748       -6.18615422675279       -2.56346186014776
C            3.17545705470375       -4.39740731504309       -1.55285024098726
H            2.16329186866686       -3.98277855093977       -1.53102969163109
H            3.66228285110347       -4.12376097805906       -0.61124812156523
C           -3.64698656724974       -1.90033964163136        4.66957488703851
H           -3.74987367877083       -2.97946378017726        4.51663207985411
C           -4.01659720241251       -1.56866450050384        6.11264954869477
H           -3.88319220554045       -0.49464258602581        6.28081042628221
H           -3.34851855729920       -2.10030602425835        6.79559897252956
C           -5.47045108832412       -1.96502324715217        6.38712799652023
H           -5.57230601792577       -3.05212259152658        6.29496137165715
H           -5.73437732622137       -1.69064510656990        7.41258743566791
C           -6.42186798765113       -1.27638451467942        5.40568921183701
H           -7.44552740387072       -1.61540063182489        5.58923865763709
H           -6.39173809038255       -0.19353454822486        5.56722780924636
C           -6.02632597147717       -1.58445498207932        3.96025083885737
H           -6.68183414247045       -1.04477951629638        3.27083497281874
H           -6.14116916747403       -2.65621960254607        3.76335889306550
C           -4.57638732941507       -1.17006190065226        3.71115057271728
H           -4.29854750364278       -1.39470942040409        2.67892074858183
H           -4.47429118213386       -0.09022844893920        3.85520488760354
C           -0.59263497800016        3.28099226051999        6.57689398710729
H            0.23170706402038        2.57096482871594        6.69345655774052
C           -0.06099371441647        4.70084132337939        6.74187908481406
H            0.72294382399532        4.88187343285306        6.00032341794928
H           -0.86757532339146        5.41733004136138        6.55780390868588
C            0.50672855129998        4.89410426956170        8.15005379135753
H            0.85729825911256        5.92379640916945        8.26378798245648
H            1.36678677120801        4.22909621150752        8.28825457018367
C           -0.55549920668644        4.58647471859730        9.20724178338053
H           -0.12052219154715        4.68999330556476       10.20547846391610
H           -1.37608379726865        5.30670818174696        9.12117787485466
C           -1.09937519435266        3.16737969763460        9.02867361972472
H           -1.88544095879630        2.97695376849887        9.76477867487197
H           -0.29600826416196        2.44227273621112        9.19852556284970
C           -1.66509717034604        2.97752480298447        7.61845349850549
H           -2.52178329901617        3.64076473909543        7.46318386034856
H           -2.01086042488218        1.94758950959517        7.49259731576759
C            5.93625103615037        1.82766309703448        1.28370251922870
H            5.58112600346160        1.22758751741682        2.12794022128440
C            7.36345785653376        1.40553520527137        0.94215306786371
H            7.69228051056034        1.93141312345017        0.04047695574238
H            7.37665321377698        0.33228773695071        0.73362016241220
C            8.30671451018004        1.71512710507826        2.10756994612788
H            8.01896153448570        1.11434227280172        2.97724586162499
H            9.32803203926659        1.43869774209094        1.83089626397257
C            8.24937904094521        3.20050404195286        2.46843052059881
H            8.90598994107205        3.39829929356087        3.32068899159207
H            8.60477143234724        3.79881339184788        1.62275228295317
C            6.81705455881340        3.60596852898322        2.81913012884333
H            6.77624685663073        4.67380045366084        3.05232516789119
H            6.49381614965164        3.05403195424983        3.70785296774937
C            5.86662832468720        3.30257607617321        1.65762904960282
H            4.84152150656923        3.55796063167271        1.94272283795099
H            6.13588430075658        3.91281974164403        0.78994081904214
C           -2.92758769760014       -5.45967360268068        3.18398250315144
H           -2.67201769026308       -4.56235037839760        3.75451194719047
C           -4.43750066137273       -5.67124952918327        3.21331192826227
H           -4.69717110017586       -6.52834104770202        2.58420345454596
H           -4.93459737975559       -4.78885778391050        2.79995575855060
C           -4.91575968175219       -5.90669073726481        4.64848149981232
H           -4.73499986623707       -5.00466186880340        5.24344217845061
H           -5.99302984928993       -6.09509100627698        4.64650145938948
C           -4.18201022731759       -7.09075893741897        5.28069150878752
H           -4.50436391425692       -7.20953537735938        6.31913964527391
H           -4.43705444357281       -8.00947227173287        4.74178440199172
C           -2.66799134866184       -6.87529176472900        5.23384131983834
H           -2.15617356922506       -7.74593377974732        5.65341628994656
H           -2.40021440078165       -6.00282312700740        5.84014595783120
C           -2.20009614136037       -6.65373315356923        3.79346353713726
H           -1.12275238510564       -6.46412733076891        3.78193635133419
H           -2.39026075337233       -7.54735545554317        3.19099872219389
C            2.14932910246603       -4.08290867847885        4.02982295071997
H            3.06996792876092       -3.54679885781263        4.28597755961544
C            0.95708724392747       -3.29405489424519        4.55226493838232
H            0.03053791069586       -3.80352646619362        4.26835048252915
H            0.94053317900825       -2.30355811588707        4.09463880205383
C            1.00737088213010       -3.14955167160553        6.07138372516393
H            1.88105195171311       -2.55058008620062        6.34970763867643
H            0.11280820267046       -2.61317296125672        6.40250184448210
C            1.07084716682463       -4.52548407601943        6.73551335170663
H            0.13904611499464       -5.06727505775540        6.53736921695837
H            1.16769294833725       -4.40921842460876        7.81876865704526
C            2.25410012086784       -5.33398316720958        6.19745575513409
H            2.25647706874703       -6.33030033828395        6.64888525851071
H            3.19217171831015       -4.83893022759978        6.47108720231732
C            2.17700087960314       -5.46614607581715        4.67347826299538
H            3.03789192198469       -6.02849522876898        4.30187188379728
H            1.27164807382604       -6.01349179551269        4.38980626135588
C            2.56433819730733        6.60996905101819        3.02203543308789
H            3.59956225578034        6.28065483791515        3.14711136616195
H            1.99762804845006        6.26949991681465        3.89559834786877
C            2.50692301330575        8.13693847491491        2.92463973062884
H            2.90365450890890        8.57528922714360        3.84485522524514
H            3.13626098748636        8.47264704565408        2.09355825750097
C            1.06864174072796        8.61055367611281        2.70386800754598
H            1.05218223559078        9.69888740489895        2.59632380876616
H            0.45915953939611        8.34873721109367        3.57562281809749
C            0.47364102862593        7.96104755590509        1.45266339079165
H           -0.56775438946259        8.27295786147570        1.33154554256327
H            1.02851063530955        8.28728377515309        0.56666056170358
C            0.53913534960269        6.43756366058062        1.56094351946452
H           -0.07415319731973        6.09818507315836        2.40297537243140
H            0.13217114764658        5.98268596098669        0.65256176160772
C            1.97551451892308        5.97523727725674        1.76460350039116
H            2.57136338408528        6.26671869989033        0.89307656767548
Au          -0.63460555488181       -0.60555530488969       -2.80585065365904
Au           1.94989225758583       -1.18311628102370       -1.61982840939750
Au          -0.30337737754242       -2.82168075778349       -0.58180083002691
Au          -2.69461687337701       -0.70710675092732       -0.79358793141712
Au          -1.75959585329667        1.93280268692556       -1.34976366538906
Au           1.25310253238294        1.85222216904948       -1.98709045892910
Au           1.67860987827193       -0.78058106939885       -4.62152780721198
Au          -0.43799685957637       -3.57722829505952       -3.42173102472970
Au          -3.49190083552334       -3.28746331846194        0.65232923056660
Au          -3.85778459983682        0.82490349668248       -3.20349676720361
Au          -4.69896273161403        1.50491251222055        0.40390174305130
Au           0.10967983291115        4.67890411145159       -1.77632302867061
S           -2.17883453856711        0.12211267785632       -4.68232665472318
S           -5.59115197874648        1.61149495346018       -1.83320546016338
S           -4.08666004092755        1.99493449967678        2.66725267719478
S            1.89804201142399        1.55018987071183       -4.40659769047338
S            1.31644439895095       -3.09791364230434       -4.92761402718337
S           -2.12804760626928       -4.17953594250729       -1.88687930531116
S           -4.91248185424072       -1.43217320668081        0.15874181563715
S            2.38649263577388        5.24293105259540       -1.47005166684692
S           -2.16878219348575        4.26035828126244       -2.23079965918429
C           -2.79139306787066       -1.34351682213691       -5.53518963300073
H           -1.89901746077389       -1.88496255603373       -5.86578581957663
C           -3.59423392556415       -0.91834579058608       -6.76193074436564
H           -2.98802116687460       -0.25451071798174       -7.38394559813835
H           -4.48142791851775       -0.36277515943174       -6.44153491849211
C           -4.00786029875403       -2.15560959826283       -7.56548028088845
H           -4.61038401355792       -1.84854437079860       -8.42509277218512
H           -3.10978439728402       -2.65491860632846       -7.94710826480068
C           -4.80523021448971       -3.13259629944622       -6.69776914469247
H           -5.03842484206868       -4.03092694322490       -7.27670023910284
H           -5.75208239227541       -2.66906217590875       -6.40032839916713
C           -4.01452728662604       -3.51579472677053       -5.44562146450214
H           -4.61179481108824       -4.18056299999495       -4.81537416209113
H           -3.10517482991503       -4.05652780211021       -5.73112399957461
C           -3.62976789684765       -2.26289765013394       -4.65819878112160
H           -3.06776014923576       -2.54373186458813       -3.76469453900077
H           -4.53032678263317       -1.73222553902250       -4.33118699777526
C           -5.65462619028034        3.38184998692816       -2.20791409584341
H           -4.65831026151934        3.82026005275722       -2.07264186933690
C           -6.63608355624394        4.05604519511579       -1.25569531743139
H           -7.61519707541015        3.57338054468193       -1.33588503941900
H           -6.28481387601377        3.93171889202375       -0.22782311083178
C           -6.75410360251727        5.54659169451935       -1.58240721802087
H           -5.78374519316186        6.03034606840745       -1.42530655402158
H           -7.47598200488316        6.01217115131863       -0.90548055403384
C           -7.19656232539973        5.74752369712023       -3.03295161730112
H           -8.20086873332134        5.33283667431526       -3.17061710884294
H           -7.23979756446029        6.81669512863074       -3.26003902759213
C           -6.22183965525482        5.05809929842148       -3.98911874126976
H           -6.56708794690131        5.17361014418115       -5.02049879109533
H           -5.23721372484566        5.53150628932424       -3.90932516172956
C           -6.09743843070580        3.56914330370718       -3.65610115430756
H           -5.36600691905000        3.10224732935898       -4.32224626014929
H           -7.05784178831916        3.06730289227719       -3.81116684934828
C           -3.94278032390071        3.79786025265000        2.72526447837100
H           -3.39586847628304        4.01046878516305        3.65177376212354
C           -5.34239580027171        4.40078540619993        2.81356667210838
H           -5.90846274248266        4.13009508443168        1.91638620920687
H           -5.86479079206680        3.98027995825428        3.67685448287367
C           -5.26538151733775        5.92474551486734        2.93924102532356
H           -4.76466063601128        6.18877674503715        3.87695488515950
H           -6.27742794109061        6.33844432759208        2.97060937817444
C           -4.49684910833023        6.52664529681464        1.76166249053476
H           -5.03972184574104        6.33143813272234        0.83071230998690
H           -4.42049678710436        7.61083874002338        1.88478073493486
C           -3.09671507852076        5.91933719453071        1.67043456517053
H           -2.57317182295822        6.32159497056994        0.79814554737928
H           -2.52157647955448        6.18615049900834        2.56351113952380
C           -3.17548683526716        4.39742189401809        1.55287747702610
H           -2.16332191841708        3.98279907552351        1.53105392099935
H           -3.66230394311273        4.12378337595742        0.61126766001835
C            3.64701776065636        1.90032777224041       -4.66952708183712
H            3.74990132057203        2.97944682931559       -4.51654626645189
C            4.01663319388372        1.56870044763518       -6.11261302840003
H            3.88323442303750        0.49468642516343       -6.28082262953566
H            3.34855775750692        2.10036322567846       -6.79554872924221
C            5.47048812195654        1.96504968613130       -6.38708570543165
H            5.57235539657452        3.05214439640765       -6.29488653223789
H            5.73440719227391        1.69069754771958       -7.41255425550286
C            6.42189400425964        1.27636416431469       -5.40566955807649
H            7.44555871931033        1.61536443595334       -5.58921264968477
H            6.39174064070742        0.19351857687495       -5.56723544462811
C            6.02637350903184        1.58440505154912       -3.96022063984812
H            6.68187546699435        1.04470255795704       -3.27082019965447
H            6.14121749943222        2.65616398709040       -3.76329844952981
C            4.57643686315537        1.17000457536705       -3.71115205223160
H            4.29861348264184        1.39459422762523       -2.67891655554621
H            4.47434490348723        0.09017518523448       -3.85522632159581
C            0.59259617848731       -3.28100820720497       -6.57692255138188
H           -0.23173808697792       -2.57095850137498       -6.69343046781403
C            0.06093595953372       -4.70084054928520       -6.74196119232497
H           -0.72300715886808       -4.88189919781961       -6.00042042440853
H            0.86751026666342       -5.41734275060739       -6.55790887546696
C           -0.50682328223972       -4.89404348026698       -8.15011976263275
H           -0.85740657388695       -5.92372931961365       -8.26386349417199
H           -1.36687675822143       -4.22902000276471       -8.28827723623360
C            0.55539546313349       -4.58640001770545       -9.20730895476945
H            0.12039934775859       -4.68989215253317      -10.20553910962216
H            1.37597250837630       -5.30664547771241       -9.12127166982284
C            1.09928556104751       -3.16731407373915       -9.02871143412751
H            1.88533806645241       -2.97687631757840       -9.76482731302828
H            0.29592011692982       -2.44219691055875       -9.19852830779097
C            1.66503798019186       -2.97750640172006       -7.61849622088001
H            2.52172162944176       -3.64075723542228       -7.46326490590839
H            2.01081471953572       -1.94757811110741       -7.49262324586142
C           -5.93625856246028       -1.82767247036568       -1.28384560510407
H           -5.58108522283515       -1.22757384252468       -2.12805053737573
C           -7.36345188109582       -1.40556939673390       -0.94223113996408
H           -7.69224837614584       -1.93146520713317       -0.04055414718538
H           -7.37663493031759       -0.33232716543273       -0.73367649909033
C           -8.30671311354146       -1.71516629019908       -2.10764090996398
H           -8.01894857321641       -1.11437991667108       -2.97731117044079
H           -9.32803174211429       -1.43874447553018       -1.83096765669999
C           -8.24936599718250       -3.20054420762702       -2.46851041345966
H           -8.90596084953885       -3.39835020441267       -3.32077308586751
H           -8.60474433663882       -3.79886330720626       -1.62283162785475
C           -6.81707193852182       -3.60603063720845       -2.81927171555291
H           -6.77622015852835       -4.67387430926838       -3.05240707046511
H           -6.49378646213208       -3.05409913481532       -3.70797550372352
C           -5.86670971712138       -3.30258127578386       -1.65779141063838
H           -4.84163512220757       -3.55799695102314       -1.94295877914745
H           -6.13599302489006       -3.91285316504645       -0.79012527001974
C            2.92757960197389        5.45962064165547       -3.18406615046054
H            2.67205592117640        4.56234283935286       -3.75467204285130
C            4.43749365449492        5.67122368578154       -3.21333993303203
H            4.69715721955050        6.52829180910607       -2.58419600199537
H            4.93460107105758        4.78882525587297       -2.80001545620825
C            4.91577069289423        5.90668555216226       -4.64849755295554
H            4.73501477815717        5.00465985009289       -5.24346471064103
H            5.99304101750174        6.09508337648499       -4.64650693529692
C            4.18202240603414        7.09075673920648       -5.28070034073763
H            4.50437768869964        7.20953420771576       -6.31914734668094
H            4.43707030757023        8.00946496195632       -4.74178744182214
C            2.66800189838645        6.87530635535668       -5.23385742854153
H            2.15618876072342        7.74595552882041       -5.65342083313707
H            2.40021674802128        6.00284419386825       -5.84016896221832
C            2.20011063810698        6.65372618041425       -3.79348403040789
H            1.12276828637444        6.46412541297229       -3.78197792669301
H            2.39027274855146        7.54732343008140       -3.19098146335042
C           -2.14927699556349        4.08292316070035       -4.02980812475170
H           -3.06991677680514        3.54681525557396       -4.28596318217539
C           -0.95703434288733        3.29405863857222       -4.55224255154025
H           -0.03049110447376        3.80354149422139       -4.26833056940136
H           -0.94046753664151        2.30356826021686       -4.09460425158701
C           -1.00732005895719        3.14953443588283       -6.07136425940753
H           -1.88099306075577        2.55054935802022       -6.34968659524436
H           -0.11275255375210        2.61316651105674       -6.40248746787859
C           -1.07082222660038        4.52545476666139       -6.73551781333474
H           -0.13903531837213        5.06726968105204       -6.53737405197343
H           -1.16766256542398        4.40917799101220       -7.81877285547541
C           -2.25409578958547        5.33393066160564       -6.19747232362457
H           -2.25649883059935        6.33024144010379       -6.64891475904964
H           -3.19215645005902        4.83885231221105       -6.47109653202551
C           -2.17699412493694        5.46613268520642       -4.67350029969424
H           -3.03789969552550        6.02846575318681       -4.30190137275457
H           -1.27165112284794        6.01349719530512       -4.38983817729163
C           -2.56436869961092       -6.61003871996582       -3.02201191588588
H           -3.59958141979047       -6.28069487698275       -3.14710403251304
H           -1.99764119317414       -6.26957891082490       -3.89557023636009
C           -2.50692733530789       -8.13699559690500       -2.92462887572921
H           -2.90364783750516       -8.57531371043369       -3.84486210749484
H           -3.13627755706577       -8.47270967249034       -2.09356120861136
C           -1.06864324199026       -8.61060755175396       -2.70386108607702
H           -1.05217554941900       -9.69894203592225       -2.59633974276721
H           -0.45915604367409       -8.34876252596437       -3.57560521942846
C           -0.47365773236025       -7.96113055164266       -1.45263483403476
H            0.56774638390772       -8.27300883330567       -1.33152346976507
H           -1.02852429554059       -8.28737186578645       -0.56663508052168
C           -0.53916023158665       -6.43766051931209       -1.56086012357750
H            0.07411552912500       -6.09826480847335       -2.40290168092545
H           -0.13218892865192       -5.98276274545120       -0.65249371632575
C           -1.97556851312869       -5.97542495867451       -1.76451140922005
H           -2.57143315818595       -6.26681365624379       -0.89296462939966
