337
 energy: -552.563366902556 gnorm: 0.000650982522 xtb: 6.5.1 (579679a)
Au          21.58125079060278       21.73881072378224       15.97891830473748
Au          26.24966621854255       19.42943356394788       17.04365891849096
Au          21.31037016862139       24.80269945644217       13.67943001346647
Au          23.28822642787055       26.84752395953123       17.72129484695730
Au          24.88299912954043       20.62437436868478       11.18647402001717
Au          26.49429048868374       22.28877916326195       19.63205680847615
Au          24.67811055422264       21.78790137455418       16.38551908323403
Au          23.33185577132439       24.30075232517504       16.07073466311556
Au          26.18754658654901       21.09902622903540       13.83844097338280
Au          25.79458946371374       24.38795288628737       17.69597484732027
Au          23.48795666811886       22.63843819271857       13.70363174652614
Au          27.53405885976409       22.21416960339538       16.72539113133625
Au          25.94784310416043       23.85510338208435       14.88609782001465
S           26.62185032874210       24.58035948184917       20.17122257033823
S           26.27752677539402       19.94840056725324       19.35646542862189
S           20.07596516325595       23.06725139852548       14.73618311979247
S           22.22024063338944       26.61891523130496       12.45471918397441
S           22.85439638630496       20.30566892819077       17.36566923613946
S           22.67000657536345       21.07334163242855       11.91213306052538
S           21.50433111150003       26.03247860085913       16.39298135538739
C           25.14124128127944       17.82920894568567       14.31321556484941
S           26.57056073556658       18.81256232390079       14.78796545519105
C           18.30001316897392       21.11086374675270       14.01181499805237
C           22.56704656100577       21.00954946534673       19.00904092945554
C           22.23785537569091       27.92126552437843       13.70503458553739
C           27.78486030591486       17.76035734475247       20.04504895092691
C           22.80721508090899       19.94709711141376       20.07932320773154
C           20.98405915088646       24.52617860054454       18.66904568135646
C           20.83163362449048       28.42085030013267       14.02222468098800
C           27.87517615890918       19.27858582476816       19.87668841766344
Br          21.49841323039043       26.11732900553294       23.74612037725501
S           24.83954186038204       27.82291861357684       19.21350917920062
C           23.79357396222194       18.41357081990895       14.72255742074139
C           22.16115351830262       21.58949902144063        9.22354216581462
C           19.47821217018897       21.92023846419661       13.47064712865405
C           24.78010939021609       29.56104350699339       18.73104493706482
C           25.93242970669949       30.34693694643755       19.35517538939738
C           20.32026982468467       25.31604349770321       17.54693519431312
C           21.98274398919177       22.15539798660011       10.63261388582051
C           19.96666005396729       24.02388842203140       19.65759335814371
C           19.67375524645707       24.77145295099269       20.79545730267951
C           18.75500836238907       24.30642714707412       21.72503767357047
C           18.11118298064418       23.09441228036347       21.51947033141118
C           18.37879090062235       22.35808503217484       20.37342298503447
C           19.29887165550474       22.82138302132968       19.44358590240597
C           27.63721337364866       17.02257801253493       18.73950295618667
C           26.39143604770078       16.54996353646039       18.32520337476567
C           26.26553469818091       15.84075271392289       17.13667896266637
C           27.38015450747665       15.60362543435067       16.34502855734940
C           28.62262334605300       16.07423796681033       16.74883650645407
C           28.75044233759078       16.78204742609769       17.93581820530530
C           19.64884066415518       28.89558693827548       16.18218037417387
C           20.76701437533959       29.09011787438688       15.37408725885487
C           21.81225280356401       29.87869263255948       15.84913597265579
C           21.72807970178555       30.47166706786296       17.10090595190883
C           20.61547106534448       30.26655662756211       17.90386010964465
C           19.57496476158656       29.47323329809928       17.44084411584146
C           25.20102188170013       24.94862635283977       21.12033581027708
C           24.01641574884083       24.22680187841615       21.02853269537567
C           22.92200453838110       24.56780702269253       21.80506185076242
C           23.00295808344476       25.64635492411780       22.67353489225555
C           24.17544498914472       26.38256805038459       22.76588421132072
C           25.27053894001406       26.03282075053774       21.99285220574964
C           18.64881997109877       20.30284484081563       15.23611484604697
C           19.61378675743985       19.29832320622508       15.17128371261341
C           19.93444412942682       18.55612785273715       16.29984986135231
C           19.29244585148617       18.80398937824783       17.50413831737833
C           18.32612722467544       19.79700478707948       17.57380164924572
C           18.01169105353108       20.54776772662105       16.44946847010154
C           22.68659017298949       17.50518114944686       14.25974013317832
C           22.40225189999953       16.34183188076272       14.97251926758038
C           21.40168602254254       15.48158484439986       14.54271833011842
C           20.67760153568081       15.77513895710590       13.39418070969282
C           20.95978399941562       16.93039648511221       12.67876013730967
C           21.96149025331484       17.79130511881351       13.10652655730379
C           26.27345513788007       31.58150638115141       18.55601903665463
C           25.27761129368415       32.41361564974859       18.04878139815590
C           25.60714414979884       33.51823283427061       17.27699778638547
C           26.93770346908763       33.81686593962733       17.01849768633166
C           27.93650993842525       33.00839870946645       17.54183932532807
C           27.60682317056768       31.89325649905681       18.29829875105345
C           22.66456699489576       20.60268048652084       21.42980897198161
C           23.78755740554909       20.91404611448737       22.19065655223741
C           23.65505376377178       21.58437649569593       23.39870586151157
C           22.39823088023417       21.95747115610682       23.85405949072650
C           21.27294728801367       21.65153068337237       23.09929692259559
C           21.40533597076771       20.97674304186771       21.89468347697689
C           21.84855940451735       20.11778211017846        9.14021912661918
C           22.83096538920491       19.21330431920241        8.74757627429743
C           22.55908697901804       17.85304106520463        8.69244469296345
C           21.29611346684188       17.38337395373653        9.02286450707076
C           20.30650510081262       18.28081069245346        9.40470208139973
C           20.58179624849391       19.63890676414204        9.46683595334966
Au          30.31563924978940       25.97286045929295       13.79430442593081
Au          25.64745619285462       28.28079599459732       12.72950665286088
Au          30.58609467266367       22.90903590054303       16.09337975952400
Au          28.60822369640568       20.86366663292544       12.05211960856060
Au          27.01292987520620       27.08704797120970       18.58526715396664
Au          25.40245770255385       25.42287574121278       10.14040054346745
Au          27.21786617491616       25.92460381337088       13.38666260714710
Au          28.56509461200669       23.41026758547916       13.70177910601456
Au          25.70930167689281       26.61314841974272       15.93448690792493
Au          26.10218471080358       23.32321249109692       12.07743978638645
Au          28.40913028675933       25.07285417836620       16.06924439256048
Au          24.36305015441311       25.49740467087572       13.04737967066491
S           25.27484117849255       23.13106192177247        9.60146335024068
S           25.61920435710743       27.76319191689296       10.41634586530573
S           31.82087063957523       24.64418826939531       15.03640682591875
S           29.67652511393275       21.09260656609741       17.31793359517457
S           29.04245396507687       27.40584700469739       12.40696962975058
S           29.22676491896537       26.63837724378762       17.86086643743791
S           30.39219678817458       21.67888014981214       13.37930325587806
C           26.75544800959317       29.88227452506777       15.45951565451986
S           25.32613900116696       28.89903379060345       14.98452263490673
C           33.59668365950748       26.60060588182901       15.76087352518999
C           29.32963920332695       26.70192507900783       10.76360099860498
C           29.65885046591976       19.79019149878361       16.06768369864446
C           24.11187392619269       29.95113176034943        9.72764191085558
C           29.08951777782738       27.76442289642713        9.69336614286947
C           30.91265843105226       23.18527866998533       11.10363006881186
C           31.06506562289859       19.29057734607325       15.75049342919197
C           24.02155573827527       28.43290240732884        9.89599476036345
Br          30.39829159535255       21.59413205598279        6.02656276690105
S           27.05697611743516       19.88851036668365       10.55903196270279
C           28.10310748257933       29.29789952583459       15.05016947377071
C           29.73562449704754       26.12198425664554       20.54921095783555
C           32.41847931788785       25.79121468415708       16.30200495182698
C           27.11660980380001       18.15043456359420       11.04167642544172
C           25.96426824351690       17.36454660202580       10.41756905498973
C           31.57651172423414       22.39546977407158       12.22573522715037
C           29.91405125024545       25.55607542987619       19.14014756050107
C           31.93004831165560       23.68756989739855       10.11508956784181
C           32.22294820194425       22.94000996590272        8.97722245753559
C           33.14168940665118       23.40504383120752        8.04764217095533
C           33.78551430517977       24.61705751778829        8.25321868146766
C           33.51790134271911       25.35338173484975        9.39926759403689
C           32.59782178087689       24.89007925121825       10.32910127502437
C           24.25947545165432       30.68893289836510       11.03318052987774
C           25.50524367686189       31.16154429762069       11.44752815839901
C           25.63110618087505       31.87076549445070       12.63605459273090
C           24.51646726846845       32.10784965960197       13.42768847020099
C           23.27401699646515       31.63721439487596       13.02385000483716
C           23.14622960580713       30.92942822573874       11.83685070532996
C           32.24786225599942       18.81591026933712       13.59052330596472
C           31.12969486190837       18.62134242693489       14.39861731855399
C           30.08446600527580       17.83276606756190       13.92355295390333
C           30.16864510349898       17.23981808956771       12.67177110785316
C           31.28124873409390       17.44496099706475       11.86881782788170
C           32.32174331266395       18.23829275469666       12.33184661109062
C           26.69568551409407       22.76285519928548        8.65234382505260
C           27.88029418926150       23.48468160428202        8.74415081589869
C           28.97470918103811       23.14366997759551        7.96762539233795
C           28.89375997796645       22.06511046552442        7.09916501130799
C           27.72127845137971       21.32888822513943        7.00682980315597
C           26.62618270937790       21.67864078408381        7.77985490972049
C           33.24785997440713       27.40861802064511       14.53657447710421
C           32.28288888577183       28.41313452461556       14.60141118166119
C           31.96222338865185       29.15532928985455       13.47284703003644
C           32.60421507525194       28.90747019294588       12.26855412727997
C           33.57053925401099       27.91446069105967       12.19888573758897
C           33.88498789558812       27.16370229885500       13.32321848472880
C           29.21009319213627       30.20629733208933       15.51297162975546
C           29.49442610283290       31.36964715241701       14.80018668171888
C           30.49499294197697       32.22989913261852       15.22997771504145
C           31.21908488983749       31.93635048787855       16.37851173849989
C           30.93691360757403       30.78109002059860       17.09393340194931
C           29.93520762627703       29.92017429667181       16.66617675554319
C           25.62321882389031       16.12999002691887       11.21674212644557
C           26.61904470868314       15.29788762347279       11.72402680579134
C           26.28948543453211       14.19327208495792       12.49580288305821
C           24.95891754708865       13.89462746413162       12.75424354764461
C           23.96012817277925       14.70307797701365       12.23084380031360
C           24.28984019744469       15.81822025367295       11.47439404463721
C           29.23216270645152       27.10882875214170        8.34289133544588
C           28.10916703373524       26.79747233849871        7.58205116338331
C           28.24166416640371       26.12714554310484        6.37400026694546
C           29.49848382234462       25.75404093573580        5.91864429231505
C           30.62377165213907       26.05996472122821        6.67340753948985
C           30.49139001166176       26.73474764126157        7.87802340206023
C           30.04817865610887       27.59371415434075       20.63251403123302
C           29.06577651092283       28.49820097999242       21.02516281313571
C           29.33763172492545       29.85846942647498       21.08023482132966
C           30.60060404434247       30.32813320365357       20.74981532042124
C           31.59021648628291       29.43069109935620       20.36799937567444
C           31.31493143779198       28.07259378630395       20.30587812192202
H           23.19302585416118       21.76208073475027        8.90524991807083
H           21.50405364387205       22.14796216852130        8.54745000788978
H           26.93883098815418       17.53195018227840       20.69898805521253
H           28.70036269984637       17.42778366772175       20.54563286973089
H           19.49806290669802       22.24396637607540       18.54638605139640
H           23.82191421387892       29.94439102427989       19.07985086218881
H           24.80616578794171       29.64343116871758       17.64413335301006
H           22.44166556381109       23.14306336051346       10.68301511636563
H           20.92255321285788       22.25783686444083       10.86804992675289
H           17.39788168215282       22.72581900582742       22.24765227551055
H           19.65865951703518       24.66604422833622       16.97218984541998
H           19.73365476892356       26.13582788245745       17.96391897744032
H           23.80968445139611       19.52750170286136       19.95875812917197
H           22.07922101685877       19.14083768615935       19.95509821675395
H           21.71109311091138       25.16778705528159       19.17678961810015
H           21.53466082006944       23.68751461037806       18.23170430729532
H           21.54012003242553       21.36466521381129       19.07465913288716
H           23.23409523061559       21.85555205644045       19.17213755151397
H           22.84961595392563       28.72936131449583       13.30398836426345
H           22.71541447222205       27.55591883089073       14.61269829585225
H           28.11776568486511       19.72950028031784       20.83821795145025
H           28.65313039604892       19.54996561433437       19.15978627058841
H           23.67990950735008       19.40871702816670       14.28376242040141
H           23.75961779404524       18.51918272821028       15.81084665549518
H           25.26756745474289       16.84365389168760       14.76306619560793
H           25.17101794084084       17.71687976274113       13.22996017013415
H           20.28494235971091       21.26177605754557       13.14486712200536
H           19.14680723868306       22.51018588897971       12.61666386610366
H           26.81729944734434       29.70599562966680       19.40363102128418
H           25.67410052631575       30.61987893053893       20.38353853536274
H           20.17209773028909       25.72059828992315       20.95955268850102
H           18.54733711308776       24.89104391518694       22.61406554995462
H           17.86779424974008       21.41692678056053       20.20501230452726
H           20.13893598846186       27.57498862858881       14.01161169110714
H           20.50710839279483       29.11778809372796       13.24221376029382
H           17.96334002787830       20.43778531182306       13.21520360814029
H           17.47988618211483       21.79555832532873       14.24482379943963
H           18.83190949201718       28.27689172091402       15.82618187308030
H           24.77244982778559       20.62701911022362       21.83753293485402
H           29.72782048170767       17.13030149650698       18.25268297262398
H           22.53699742961737       31.10440769277433       17.44712770119991
H           17.80790683314527       19.98378029356673       18.50747162910210
H           17.25872817200102       21.32582309367445       16.51536404297835
H           20.69038978498316       17.78214899968200       16.23808943502370
H           19.54313431631883       18.22376870373883       18.38482527209294
H           24.82036233164130       34.14992509650623       16.87954764478479
H           25.52066509627627       16.71083373218716       18.95065572879187
H           24.23485142174412       32.20136676794327       18.25614322185664
H           24.23598622523445       27.22726374098296       23.44057182086762
H           23.95061278698008       23.38788387274729       20.34666854370230
H           20.55984975361899       30.72311423074100       18.88539844629303
H           22.01006219827238       23.98864245661705       21.73754625568260
H           26.18771529865059       26.60537852691365       22.06260967952046
H           20.10744786162358       19.08544522478467       14.22999826185998
H           19.89343215825306       15.10569934802235       13.05974815103258
H           21.08019350526660       16.32213467712504        8.97698767470911
H           22.70466110537986       30.03100436169554       15.25148868669339
H           29.50050641755217       15.87595767745496       16.14451619270378
H           21.18558626640974       14.58115924705374       15.10665774924461
H           20.28808070065036       21.94368850638608       23.44696794705737
H           23.81462798023829       19.57573111077193        8.46858345516285
H           28.39407169460939       31.25727907190468       18.68942473430504
H           22.29487440399148       22.48914740109995       24.79302137011553
H           24.53756468110188       21.82279803036488       23.98192209273235
H           23.33346180678248       17.16053318751821        8.38186414381887
H           20.39783765559319       17.16601948785203       11.78253603622317
H           19.31259749446467       17.92166614256016        9.64799708577813
H           28.97833003180455       33.24098358940535       17.35280334001646
H           25.29344619516134       15.46499759812333       16.83691230174696
H           19.80321374748400       20.33155292703716        9.76876991481129
H           22.96644828636797       16.10923592443116       15.86970945662353
H           20.52222367898379       20.74170766353248       21.30982067765059
H           22.17201906955651       18.69597373485527       12.54472246338217
H           18.70248766629432       29.30283814062629       18.06174861401518
H           27.28324525037760       15.04602647995053       15.42017910810959
H           27.19542167867083       34.67956614931543       16.41482243203203
H           24.61334755394059       32.66543164564829       14.35255084192465
H           31.78923933903637       28.62601857673495       15.54270157590511
H           29.81754893392481       28.57064415972239        9.81762013327041
H           28.08706235726843       28.18404896606710        9.81394067126564
H           28.66254699386571       25.85594881434393       10.60054028674248
H           30.35654657556310       26.34676729663114       10.69798110793556
H           30.97423074104738       25.45365870510182       18.90466964831618
H           29.45508406788186       24.56843145354123       19.08968893154813
H           31.20627945948697       29.92930965301748       13.53461304595110
H           32.39862679784686       25.46748849123152       11.22630532351152
H           26.22260095149683       17.09157107022047        9.38921521263181
H           25.07939741246964       18.00548905530465       10.36908013487120
H           30.36199660635437       24.02391771907122       11.54093516181696
H           30.18565662608215       22.54363059755403       10.59587975667189
H           23.24358402056583       28.16151563916376       10.61287588901406
H           23.77901245593328       27.98197149269872        8.93446052316802
H           26.60318823538346       32.24650081301109       12.93586462688005
H           22.39611768876139       31.83547380644680       13.62815322959509
H           32.16311419840612       21.57567409319655       11.80876215105732
H           32.23806958876877       23.04547014242780       12.80054518034347
H           31.72460566359679       21.99086455184621        8.81312327634455
H           30.39272494077755       25.56351631662383       21.22528424815991
H           28.70376336297034       25.94939522984285       20.86752578359216
H           27.09054130709930       18.06810710722381       12.12859420956516
H           28.07480400870163       17.76707777281057       10.69287720798275
H           34.02889717200979       26.29453851618146        9.56768480375168
H           26.37603495733322       31.00067598241447       10.82210554616923
H           23.19638910632599       30.28369716843041        9.22702464788765
H           24.95793005126108       30.17953459160744        9.07373640293521
H           28.13706219816565       29.19229846174663       13.96187888956683
H           28.21676413656619       28.30274716809952       15.48895777978201
H           26.72563434469749       29.99457535898162       16.54277495826834
H           26.62915076850767       30.86783925276432       15.00968215856262
H           22.16886742849388       30.58114425916788       11.51997174791355
H           29.19206018296286       17.68043360923581       14.52119895903229
H           33.34936140412290       22.82043140887686        7.15861173591375
H           27.94609549128438       24.32360440654229        9.42600878946333
H           31.38958541949574       18.59362494911847       16.53049300385213
H           31.75777916914155       20.13642320149386       15.76112013263550
H           29.88664659165205       23.72284447689547        8.03512420525799
H           29.18128581162835       20.15552577020060       15.16001781963603
H           29.04707838505321       18.98211110110673       16.46874940221105
H           25.70901317146305       21.10607063051002        7.71011252302288
H           31.33687790629722       16.98841659051767       10.88727372831985
H           33.06478196575414       19.43461680474271       13.94652837550097
H           33.19421733617229       18.40871107414857       11.71094414220816
H           34.41682306237059       25.91592418592636       15.52786795865806
H           33.93334188410756       27.27368556733731       16.55749114093743
H           34.49881956734224       24.98565266891383        7.52504214031642
H           29.35973762960015       16.60706920672564       12.32553940935028
H           32.74988746891461       25.20127069408533       17.15599254856579
H           31.61173280313763       26.44966700850604       16.62777388311649
H           27.66074044295361       20.48418097421207        6.33215631116109
H           32.58412342521240       29.78983378490226       20.12470298945768
H           31.49887049863959       30.54546996742390       17.99015142571885
H           28.08211824245302       28.13578415894552       21.30417869123906
H           27.07625447083224       13.56159194624963       12.89329745104464
H           27.35915008361622       25.88873267149965        5.79078609823758
H           32.35351944646247       29.48769031981259       11.38786872634766
H           34.63795633848076       26.38565259581556       13.25731981150931
H           30.71108746965828       33.13032484751919       14.66603517246429
H           27.66181190765728       15.51013860161778       11.51670693916836
H           22.91830132861759       14.47048324941277       12.41983239132523
H           24.70117962263451       13.03193182324744       13.35791740589911
H           31.60863522606360       25.76779964377818        6.32573449493998
H           32.09351397308806       27.37994604095655       20.00395043361076
H           28.56324447826148       30.55098066574463       21.39077862871410
H           29.60183452961801       25.22237169020005        4.97967818858114
H           32.00325243502665       32.60579548786646       16.71293918034895
H           31.37450409589601       26.96976894128685        8.46288999152026
H           28.93022623714895       31.60224108241574       13.90299759459153
H           23.50260191896461       16.45417972521808       11.08321859002951
H           27.12427788697520       27.08450116593915        7.93518455145613
H           30.81652065998593       31.38937326376995       20.79567867010239
H           29.72469273808908       29.01549761720810       17.22797778112863
H           34.08875457138785       27.72768680849502       11.26521265741764
