367
 energy: -1064.319327670054 gnorm: 0.000757612222 xtb: 6.5.1 (579679a)
Au          -0.00039208021242      -11.57159754023304       -5.96523256198398
Au          -1.55693847904487       -9.20980565683687       -5.47983469044067
Au           0.79435169661886      -10.12933197762370       -3.61084750720946
Au          -2.88044552324397      -11.46375591841685       -6.47804617374284
Au          -0.78178970363347      -13.10921358969738       -8.19977556679149
Au           3.55184073888992      -14.83276757022646       -8.07293850748757
Au           3.82770099198926      -12.49682187839198       -9.57653413406476
Au          -0.16241389971479       -6.83305206088842       -5.06499374721055
Au           2.10748001015847       -7.66945988179331       -3.63938021755948
F           -4.60275247248172       -7.30234405536083      -11.10517563831137
F           -6.41147108410862       -8.08055075401215      -10.23756762028194
F           -6.45085650668970       -6.20842269351415      -11.30991026984116
F           -5.90109529014200       -2.37016081964010       -6.64304270253254
F           -7.49284448670169       -2.86436233534214       -8.00883467839678
F           -7.46637302309585       -3.72562842280197       -6.03291938075753
F            2.33686206712957       -0.79346968093341       -9.37761662355201
F            0.60109202173068       -1.87161771309975       -8.68095253265898
F            1.28449034518643       -0.12592996289098       -7.62152080454051
F            6.70728029849475       -2.00288834380710       -7.70792780326081
F            6.87593096166136       -3.66525084039916       -6.33891853983579
F            6.58540968047760       -1.66814962601633       -5.58375326555116
F           -1.31663678297511       -4.10925550005646       -4.23329396352743
F           -3.42608015317942       -4.23427090383346       -3.82570535802874
F           -2.12560749625857       -3.17692488772976       -2.46517165979174
F            0.66346456384851       -6.10903306782643        0.86212676162730
F            1.80013978671298       -6.39583387096887       -0.94558304015775
F            1.04767726365382       -8.10265664163304        0.13489034326616
F           -5.77519982126170       -5.68575527025351       -3.89812828426984
F           -5.97695318888178       -7.55495464604431       -2.85316359796227
F           -7.68033405807923       -6.24595360827692       -3.05840111703421
F          -10.39257944398710       -6.44706180545361       -7.11594315215252
F           -8.91204735660521       -5.90694553261919       -8.58524690284927
F           -9.87923005530546       -7.82908227112066       -8.69195639504977
F           10.57933372243417      -13.01350005633444      -11.54624106519018
F           10.54797067678670      -11.17321659774953      -10.42683918042063
F           12.14054241228326      -12.59742652345884      -10.11763005389628
F           10.37451966617787      -13.67818831302294       -4.87352478442993
F           11.64364677391550      -15.01935886490022       -5.98349471519736
F            9.69189869018892      -15.66979489438056       -5.32946795449999
F            3.39957000900301       -3.85522767582601      -11.13951886392848
F            2.65401991079360       -4.49276551772166       -9.22159310026690
F            4.56221706117645       -5.20080619993799       -9.91906045260427
F           -0.39997803145527       -5.63033967857298      -13.79526535634900
F           -1.50487240827781       -6.36475778157315      -12.09726964779266
F           -0.91167204645262       -7.72231413926550      -13.66369032946742
C           -2.05549164195731       -7.03077465254816       -5.78444980105048
C           -3.03669059710525       -6.61798311190595       -6.38013659460316
C           -4.12086037001544       -6.12944415488776       -7.14894350379330
C           -4.42237186235766       -6.74362133236122       -8.36955906878204
H           -3.86419757168893       -7.61646237016751       -8.68593422469106
C           -5.42637179584323       -6.23539278624509       -9.18013740845259
C           -6.16216373222409       -5.12260146064929       -8.78666070444542
H           -6.94044054599846       -4.72307786055656       -9.42401689098285
C           -5.88249744655978       -4.53363646027781       -7.55784005449866
C           -4.87117341458466       -5.02183772115184       -6.74084809005239
H           -4.66084128827305       -4.54188168983333       -5.79318027242679
C           -5.72670012591006       -6.94323825907810      -10.47531157226326
C           -6.69583258321460       -3.36163629620990       -7.06847732250914
C            1.65806820428434       -5.93033768250562       -4.60769913549214
C            2.19513637225704       -4.96192102683656       -5.12925172412504
C            2.79142831575104       -3.89042572949430       -5.83554032609953
C            1.99394709734258       -3.06195259589935       -6.63182709415969
H            0.92086282766041       -3.20347974812399       -6.64919751494998
C            2.57752180894575       -2.08136478426276       -7.41933023577887
C            3.95633345170567       -1.89445389812689       -7.41505274555722
H            4.41023284426321       -1.13504407578522       -8.03950741291922
C            4.74549418880730       -2.70905552062795       -6.60915919563199
C            4.17643930977155       -3.70207484752037       -5.82402779718646
H            4.80528719369927       -4.33983079404928       -5.21478620767775
C            6.23883997247158       -2.50752926164561       -6.56814754736964
C            1.69972431544785       -1.21241988690756       -8.28376498902807
C           -3.57191356235131      -10.12347955735485       -2.78457069297662
C           -3.08849006878958       -9.06216494129855       -2.43470184288516
C           -2.40670700686028       -7.86559166135115       -2.09737475917625
C           -2.75507334922289       -6.64828985829876       -2.69308677280257
H           -3.62500958165701       -6.59021582064801       -3.33392815794692
C           -1.96049329999635       -5.52799687681124       -2.49448043083446
C           -0.83045022808628       -5.58913472822711       -1.68348611158312
H           -0.20792610841148       -4.71410690439212       -1.54349748824601
C           -0.50163284560766       -6.79480495683404       -1.07088090974007
C           -1.27578890181874       -7.92757634170766       -1.27431300928663
H           -0.99560200054189       -8.86729282875489       -0.81448499686958
C            0.75098581573516       -6.85757240837387       -0.23701565563612
C           -2.23048508025999       -4.24913454405996       -3.24260616549575
C           -5.14191023084759      -11.22282115354971       -7.36784425382900
C           -5.77514613070861      -10.23355931820938       -7.04952304766319
C           -6.52055397740825       -9.10068392399730       -6.63634474941650
C           -7.56069087777796       -8.59309593554926       -7.42194317189150
H           -7.80271878830030       -9.06022861984049       -8.36806381028457
C           -8.28716618805927       -7.49565929409528       -6.98282499344368
C           -7.99310697296998       -6.88266068110942       -5.76866676886729
H           -8.56177409780144       -6.02400890221744       -5.43353256165699
C           -6.95901041279730       -7.39160053321560       -4.98913139405896
C           -6.22225782355157       -8.48698818606286       -5.41511441125757
H           -5.41614240037215       -8.87094503770068       -4.80105211070826
C           -6.60863959835080       -6.72054008233378       -3.68785625804519
C           -9.38699556033359       -6.92828557957276       -7.84571637953062
C            5.19573870007337      -13.81869951809851       -8.77355057562388
C            6.41115183767712      -13.81211335315858       -8.63475475634922
C            7.81455881562484      -13.75725434172601       -8.46518051739387
C            8.62961179021413      -13.22271990736720       -9.46770978430521
H            8.19199516832208      -12.87034716618639      -10.39410832290120
C           10.00073547810334      -13.13063908801312       -9.26865342301666
C           10.58482670123282      -13.58589086548272       -8.09181984668718
H           11.65501909691650      -13.51443612638695       -7.94462798799057
C            9.77184707199574      -14.12962937638450       -7.10202845092166
C            8.39774045674942      -14.19974009696280       -7.27256801484445
H            7.77621304714370      -14.60152832593651       -6.48230881956357
C           10.37862137142886      -14.62806017255506       -5.81369936111783
C           10.83361508553088      -12.48477959171567      -10.34571716986461
C            2.93827760187766      -10.87183865508131      -10.30988859757064
C            2.65072910554174       -9.76836361394437      -10.73360687714929
C            2.28943400801673       -8.46009575620178      -11.13874541754245
C            1.15072618576772       -8.22620547556975      -11.91861965693193
H            0.57319461599717       -9.05968559680273      -12.29802143541871
C            0.76082937572018       -6.92315133470650      -12.20284864152031
C            1.48252557181686       -5.83733476897122      -11.71662159689306
H            1.16064357989797       -4.82503634041021      -11.92733514100690
C            2.61537220658329       -6.07268787686800      -10.94332228318714
C            3.02436075337588       -7.36815217621051      -10.65853986583942
H            3.90592184758956       -7.53745759197376      -10.05437263966376
C            3.32755264427236       -4.90153750087047      -10.32205464117652
C           -0.51312020379980       -6.66337720619332      -12.96288899643709
Au          -1.26852135233823      -14.10140396735936       -5.48027478257128
Au          -1.64751221977981      -11.60469737551870       -3.61106362517291
Au           1.34715008482107      -14.12116574392975       -6.47750655323097
Au           1.72232100982200      -11.48134500325483       -8.19999665996533
Au           1.04770171741619       -6.86629379935164       -8.07228663585739
Au          -1.11239721312034       -7.79511848588194       -9.57784428776075
Au          -4.02386426512886      -14.08229596910859       -5.06635352586904
Au          -4.43460509781731      -11.69820290232147       -3.64149257378496
F           -1.39432493603800      -17.69323954812152      -11.10431960813511
F            0.18286609950603      -18.87167343807933      -10.23624220589926
F           -1.41879265676006      -19.84063534865913      -11.30962942496402
F           -5.01865714726715      -21.28441085899889       -6.64365973037677
F           -3.79411843267700      -22.41561533624385       -8.00900272559145
F           -3.06219201303406      -21.96178601982168       -6.03288316159186
F          -10.50292944073112      -14.93883612652051       -9.38017248951756
F           -8.70135301834459      -15.90278536165055       -8.68319997449541
F          -10.55489489764626      -16.18352017184962       -7.62374879312660
F          -11.63975209911838      -10.54837097831597       -7.71270788882882
F          -10.28542305557912       -9.57121720753061       -6.34265587260249
F          -11.87058278156107      -10.82098360808907       -5.58870199329789
F           -5.80636174162289      -16.44369289984854       -4.23373789883813
F           -4.64248210556769      -18.20753568102080       -3.82667236263295
F           -6.20852319184755      -17.61102360668443       -2.46581805207229
F           -5.06505230026345      -13.72829339686977        0.86123019474125
F           -5.38502616664640      -12.60078469241910       -0.94666064430293
F           -3.53073277147159      -12.39868642272167        0.13388856994667
F           -2.21128224720673      -19.51665443668643       -3.89797598055627
F           -0.49207696613825      -18.75657666327623       -2.85242736162788
F           -0.77400415306841      -20.88628464458083       -3.05724766343205
F            0.75768284522261      -23.13533561628907       -7.11416842606521
F           -0.44969959753159      -22.12325781862022       -8.58403992631003
F            1.69856564892665      -21.99998106680503       -8.68992854845121
F           -4.03996517373022       -1.68979461343981      -11.54804110714729
F           -5.61828979690091       -2.63694433474695      -10.42889738910148
F           -5.18123102626653       -0.54559645496006      -10.11983778177348
F           -3.36306509425226       -1.53447302073331       -4.87507403740126
F           -2.83597257675831        0.23509403272916       -5.98514102394810
F           -1.29691889438651       -1.12997619051740       -5.33088777348707
F           -8.38190620798885      -12.48676795659391      -11.14150122693397
F           -7.45770651631349      -12.81376740421406       -9.22325572188139
F           -7.79802133620140      -10.80716487592731       -9.92090382552508
F           -4.94384859170793      -14.89014359945167      -13.79636039403876
F           -3.75652284335837      -15.47997229494218      -12.09761325835930
F           -2.87628995669133      -14.28761241351432      -13.66349317325554
C           -2.90596033728386      -15.62356996125547       -5.78405095143667
C           -2.77245995172133      -16.67951839411001       -6.37999125948919
C           -2.65327774182113      -17.86269029015164       -7.14880748890136
C           -1.97018404049265      -17.81668413347234       -8.36918259489431
H           -1.49320804526284      -16.89687007239686       -8.68531051137148
C           -1.90811075383021      -18.94023659897188       -9.17981382011056
C           -2.50408362352778      -20.13385482643183       -8.78659126257517
H           -2.46086005461911      -21.00756029630646       -9.42403100643073
C           -3.15421779158052      -20.18623107887069       -7.55790595490045
C           -3.23729990335631      -19.06634598684052       -6.74086401660296
H           -3.75826455652072      -19.12427711159929       -5.79328374929356
C           -1.14434289950114      -18.84646514073754      -10.47463495933117
C           -3.76247388563873      -21.47668525469232       -7.06869205792042
C           -5.71623718712645      -12.95784350719921       -4.60859073648011
C           -6.82306344115323      -12.97674856787966       -5.13085419097496
C           -8.04867449125600      -12.99596935353278       -5.83800901589881
C           -8.36726971743093      -14.10100708797562       -6.63414140669561
H           -7.70823030672327      -14.95962265198940       -6.65114471421153
C           -9.50802002610593      -14.08597954214403       -7.42201922795927
C          -10.35914776864282      -12.98523673663978       -7.41832556009661
H          -11.24348426435302      -12.97184225587339       -8.04317909429678
C          -10.04848155668250      -11.89439552218384       -6.61249008753271
C           -8.90432783473117      -11.89070574300511       -5.82684638712342
H           -8.66670425927032      -11.02723131065921       -5.21750142827749
C          -10.96950593293056      -10.70171672299642       -6.57232585934257
C           -9.82157214901964      -15.28083884346010       -8.28621403754419
C            0.52994174323861      -15.38936368094310       -2.78387996494176
C           -0.63100652029501      -15.50143982953601       -2.43444477260156
C           -2.00820168358948      -15.50919445026224       -2.09730061638569
C           -2.88804927042826      -16.41961757927058       -2.69314621428158
H           -2.50317163884386      -17.20203772826021       -3.33386810082992
C           -4.25560713204092      -16.29160044369627       -2.49502799366597
C           -4.76794939336512      -15.28224523055992       -1.68436946560770
H           -5.83705442965257      -15.18058793936388       -1.54477228170311
C           -3.88840606646119      -14.39455786274981       -1.07161527035643
C           -2.52024557530940      -14.49865358847280       -1.27457833837098
H           -1.84667322229706      -13.78612103109424       -0.81456787566820
C           -4.46056058276877      -13.27831707680416       -0.23795779145352
C           -5.22784519608749      -17.16508196034797       -3.24327816159260
C            2.26870235390522      -16.20026594694545       -7.36624522976586
C            1.72829322727424      -17.24328804755620       -7.04829640891747
C            1.11945419960897      -18.45507646550288       -6.63518713270342
C            1.20037198934298      -19.60982702580268       -7.42049412098552
H            1.72622519609202      -19.58597457974014       -8.36645794028495
C            0.61320862419253      -20.78767017729680       -6.98133813050443
C           -0.06505299958167      -20.83937569379253       -5.76736630589833
H           -0.52439614076867      -21.76116892350464       -5.43227976113902
C           -0.14161937475816      -19.68924431711826       -4.98802985501267
C            0.43867808971815      -18.50351970975433       -5.41404668210427
H            0.36793935953558      -17.61338365879112       -4.80006811365508
C           -0.89851194422035      -19.72104550234211       -3.68706282235207
C            0.67200136229816      -22.02391908037560       -7.84409840665353
C           -0.65172249760774       -5.94953160994565       -8.77448672471749
C           -1.26525726822028       -4.90027835212644       -8.63590756935579
C           -2.01433381895094       -3.71221136708428       -8.46651127619089
C           -2.88450069813758       -3.27352460496279       -9.46922840705540
H           -2.97068920180880       -3.82863871742336      -10.39567702004723
C           -3.64977218731614       -2.13208060700197       -9.27032840963733
C           -3.54775970992772       -1.39862490604399       -8.09348009045967
H           -4.14470775806704       -0.50750216446554       -7.94638346252314
C           -2.67059172134985       -1.83087847342410       -7.10351565090638
C           -1.92292724524627       -2.98592738917898       -7.27387147995572
H           -1.26442042611993       -3.32336519872541       -6.48346334591802
C           -2.54241406504272       -1.05610425017206       -5.81522075951527
C           -4.62528399852009       -1.73377603718787      -10.34764302815461
C           -2.07499045671173       -9.37809096241158      -10.31061295055672
C           -2.88663337637201      -10.17895345522047      -10.73449911183670
C           -3.83887262019012      -11.14608512626048      -11.13964397661164
C           -3.47190311975551      -12.24928317933612      -11.91929137420499
H           -2.46123541513362      -12.33274754798932      -12.29844881546137
C           -4.40535409484668      -13.23851805173072      -12.20359994213547
C           -5.70668381858076      -13.15633334079755      -11.71774258934267
H           -6.42240730064430      -13.94120865774764      -11.92862175842612
C           -6.06943133986728      -12.05752932154083      -10.94459013983079
C           -5.15206628052549      -11.05559165035373      -10.65966845900601
H           -5.44633482445135      -10.20749661276855      -10.05553598489541
C           -7.43994884554678      -12.02614149823963      -10.32372516426546
C           -3.99310270654794      -14.47176130693836      -12.96337647173873
Au           2.82429662438729      -11.40526041356955       -5.47892899129536
Au           0.85172546712837      -12.98259204884256       -3.61027465722879
Au           1.53372454288948       -9.13052554625561       -6.47696836356949
Au          -0.94027564510082      -10.12671696455866       -8.19966161928474
Au          -4.59966965755042      -13.01858640899158       -8.07274538435753
Au          -2.71424333053071      -14.42475722865900       -9.57748607607129
Au           4.18512764089732      -13.80194179638436       -5.06505430981445
Au           2.32571491948813      -15.34970843876731       -3.63936342159048
F            6.00050973694883       -9.72040407440536      -11.10357045554769
F            6.23006684441908       -7.76507454393852      -10.23534152458743
F            7.87172980691279       -8.66631009798778      -11.30726692116681
F           10.91981606162467      -11.06260760397670       -6.64043795695907
F           11.28791181958881       -9.43676825982319       -8.00588237646257
F           10.52845876404072       -9.02941545287210       -6.03002339466427
F            8.16745945215887      -18.98502196080737       -9.37705561342089
F            8.10127502217538      -16.94278679477630       -8.68024502598674
F            9.27090273397570      -18.40755094138715       -7.62038180177046
F            4.93347183962691      -22.16484769216017       -7.70996661775268
F            3.40957650613075      -21.48041809096280       -6.34051762756064
F            5.28429270951006      -22.22806894899392       -5.58583634783634
F            7.12121081947760      -14.16427147104458       -4.23209897361649
F            8.06693183643064      -12.27457398652654       -3.82449699055476
F            8.33293885365490      -13.92935340858713       -2.46391685309795
F            4.39810037669922      -14.88033239571463        0.86239058185265
F            3.58181453555168      -15.72106419799607       -0.94563424335999
F            2.47959414701419      -14.21623080710155        0.13484517618079
F            7.98465810760943       -9.51461157955186       -3.89562946374759
F            6.46644742501944       -8.40531730916040       -2.85109396447214
F            8.45193343457123       -7.58482604274959       -3.05535557235858
F            9.63494742137591       -5.13431064379796       -7.11249800264996
F            9.36261901952865       -6.68613437700161       -8.58226840643008
F            8.18152034648269       -4.88748326459665       -8.68855124626323
F           -6.53676601089020      -20.01266113314837      -11.54906991860609
F           -4.92816481641088      -20.90626487374060      -10.42900071098341
F           -6.95817223524829      -21.57299212299856      -10.12105651875656
F           -7.01216286398484      -19.50478377107901       -4.87638472667416
F           -8.80809970246680      -19.93240819755854       -5.98688604275840
F           -8.39512570345161      -17.91728186184023       -5.33201543848458
F            4.98401955676829      -18.37415545948116      -11.13961550884431
F            4.80404583239665      -17.41040535857050       -9.22139974696240
F            3.23706210470851      -18.70880545447777       -9.91977737619771
F            5.34696998027499      -14.19603908876670      -13.79458595262751
F            5.26284155300655      -12.87197556086355      -12.09659306876009
F            3.79095113716985      -12.70704490801751      -13.66339422277823
C            4.96089655852157      -12.06325624515131       -5.78304376487207
C            5.80886576510990      -11.41963942195620       -6.37862216760738
C            6.77420023332061      -10.72495004500990       -7.14720642727557
C            6.39326681693717      -10.15646502921817       -8.36775914030026
H            5.35835553041909      -10.20350598187746       -8.68438190076841
C            7.33552899577859       -9.54076632692667       -9.17795351669186
C            8.66702491227120       -9.45987518190773       -8.78413181288881
H            9.40223952968368       -8.98535010832417       -9.42118934527230
C            9.03704190664267       -9.99685018371271       -7.55538028119177
C            8.10846332210412      -10.62888749633460       -6.73876152611589
H            8.41877509824770      -11.05122097554120       -5.79112949867404
C            6.87301339240832       -8.92653458061508      -10.47314049476626
C           10.45860050395715       -9.87854599049032       -7.06574302460198
C            4.05693230607412      -15.82973344622693       -4.60732206921665
C            4.62700438616633      -16.77890069666767       -5.12908990634140
C            5.25685043504574      -17.83081676821539       -5.83570074416550
C            6.37326915518929      -17.55421219445969       -6.63165101373393
H            6.78726132850102      -16.55412912633607       -6.64868609892246
C            6.93088861023145      -18.54970585221897       -7.41926536393058
C            6.40326745664673      -19.83721091190129       -7.41553460110939
H            6.83406724532235      -20.60982543133821       -8.04015430209647
C            5.30303053584351      -20.11354770706563       -6.60996969276005
C            4.72749894078656      -19.12446639990931       -5.82459494367340
H            3.86069786682526      -19.35036808466093       -5.21551274250534
C            4.73073551754943      -21.50755034797936       -6.56975941846978
C            8.12267096700502      -18.22386750647920       -8.28316318071315
C            3.03933585849737       -9.20473694929089       -2.78340619836144
C            3.71703451344639      -10.15391801788013       -2.43376933264804
C            4.41241643754006      -11.34256261469742       -2.09624025891475
C            5.64096408417484      -11.64927305953456       -2.69173562238358
H            6.12623988556514      -10.92476539718250       -3.33238654250810
C            6.21391571936515      -12.89756279183179       -2.49336221287758
C            5.59584414871797      -13.84590704256549       -1.68275633608058
H            6.04242667708500      -14.82254129567850       -1.54291674941983
C            4.38709947296761      -13.52810457116103       -1.07038941335519
C            3.79310276091862      -12.29128222293441       -1.27366306908852
H            2.83904997584530      -12.06428822285219       -0.81401961780513
C            3.70631417209210      -14.58172224978131       -0.23686402435036
C            7.45661549097380      -13.30278890266262       -3.24140558893726
C            2.87377770980138       -7.29394868843306       -7.36615901105378
C            4.04710361762032       -7.24003746677616       -7.04774977825589
C            5.40084659897562       -7.16132527654535       -6.63428521457847
C            6.36061911929703       -6.51391216850378       -7.41938927388515
H            6.07726089319850       -6.07047735317883       -8.36544129912914
C            7.67413905163119       -6.43345964546560       -6.97992549992091
C            8.05776661651319       -6.99487694542349       -5.76580321806770
H            9.08565002550577       -6.93171602923246       -5.43046549300186
C            7.09981262308060       -7.63618195876086       -4.98664634611143
C            5.78291366202651       -7.72658358716322       -5.41301573058128
H            5.04727865693336       -8.23290754404945       -4.79918190364041
C            7.50529286879768       -8.27542820021620       -3.68534326102876
C            8.71549432685642       -5.76439451993258       -7.84251820178860
C           -4.54326085189242      -14.94859986552004       -8.77498187814074
C           -5.14516408515326      -16.00452652146872       -8.63649584696949
C           -5.79953915501591      -17.24726481458373       -8.46716362207885
C           -5.74403836968638      -18.22015091581981       -9.46989879287863
H           -5.21987360137621      -18.01715600234966      -10.39614481078928
C           -6.34999287419289      -19.45360466429588       -9.27124433098256
C           -7.03656663583362      -19.73201937704049       -8.09461644398982
H           -7.50988629289483      -20.69455540989725       -7.94773068376169
C           -7.10112567818645      -18.75629436164018       -7.10462769801863
C           -6.47461191489142      -17.53125494117170       -7.27474103175568
H           -6.51189667171736      -16.79227232547145       -6.48432581941860
C           -7.83650550299157      -19.03282512623696       -5.81654712419636
C           -6.20680435740550      -20.49760064393725      -10.34847945451015
C           -0.86207692349175      -14.46674910838800      -10.31022955109324
C            0.23739384686537      -14.76923975352416      -10.73389963486551
C            1.55112289375934      -15.11039724722975      -11.13877866558333
C            2.32314617457341      -14.24115133931168      -11.91848180902130
H            1.89018706539965      -13.32418380388357      -12.29781686252270
C            3.64658469452722      -14.55506381004375      -12.20259801616435
C            4.22594047971838      -15.72307342485380      -11.71644163504235
H            5.26353620830634      -15.95057291160947      -11.92713885709183
C            3.45558047477283      -16.58648065110957      -10.94326015985413
C            2.12918026911946      -16.29289680145131      -10.65857422725861
H            1.54163602296022      -16.97172123253089      -10.05456249254065
C            4.11361291173136      -17.78898406682272      -10.32218368087907
C            4.50864787019159      -13.58161122067875      -12.96240958425912
