407
 energy: -648.680827486046 gnorm: 0.000688079404 xtb: 6.5.1 (579679a)
Au          15.54456265760977       -0.37922897476025        9.00561124553887
Au          18.06224705801241        1.14843655166176        8.28925592300213
Au          15.90279501676570        0.93682844544378        6.28686760429404
Au          13.30334630304794        1.16534991137210        7.70350393305698
Au          13.85681148496105        1.55430973369222       10.58695369751498
Au          16.82670137311399        1.49137121616731       10.96479388984977
Au          15.61205909772182        2.42785842881547        8.62145516961353
Au          17.96342038546936        3.84196301394462        9.62139645339948
Au          17.46229730106794        3.47178343979985        6.63249025977557
Au          14.44043114999500        3.46775105133404        6.15406846956185
Au          13.05301945765945        3.84655048077107        8.85260874549939
Au          15.31503231490815        4.05960674518482       11.00811595685606
Au          15.62164618986998        5.24849169531620        8.28315286677190
Au          18.04308703307805        6.82131760305107        9.05894959204903
Au          17.33482964378598        6.44603190920626        6.12573001765264
Au          14.29755056420973        6.49321478634875        5.87975885815005
Au          13.13213321559547        6.94239062371719        8.65731857413320
Au          15.36748420831149        7.12321700679614       10.62778927972033
Au          15.68212789939356        8.07161335323864        7.88549804070531
Au          18.16136535034302        9.08013964227714        7.10098799300472
Au          15.86590452548516        8.87915473924929        5.22506928491159
Au          13.38549914494395        9.19081995064050        6.79772588968558
Au          14.13700431894114        9.59454896188494        9.63506903460987
Au          17.07625453802476        9.45265323159806        9.82703188505207
Au          15.81649110405083       10.88148661916595        7.47039721797413
Cl          15.38920308698042       -2.81383902498533        9.34686276984814
Cl          16.08009232719795       13.27364542893692        6.99555387807440
S           19.72610961493826        5.47121987696320       10.31297491702371
S           18.85674392903887        4.79852400511033        5.03953952308537
S           13.47994688559339        4.77855805034805        4.25883294030660
S           11.16643244456927        5.48661419034711        9.03820338647157
S           14.99181094296630        5.82842176969804       12.72626479665136
P           20.12452116713920       -0.06293194572108        8.24659325933183
P           16.28525267261437       -0.43729989894144        4.36366047154105
P           11.46360238422752       -0.09342176272308        6.82493289389375
P           12.33115867379086        0.83333725173634       12.28538497732599
P           17.71741378585848        0.63217571620199       13.02330658499257
P           20.29651046178540        9.87523677975129        6.38322225847371
P           16.02187162279073        9.54661431545516        2.93526943695398
P           11.44990853161031       10.19005399692272        5.80964793473996
P           12.75508258490740       11.01881380428542       10.97379632661147
P           18.19416604549134       10.69790434601071       11.51886695995974
C           21.55346959135766        0.96049597453122        8.71387641716165
C           21.31545485626025        2.20890766284692        9.28904128574267
C           22.35970124818054        3.04917115251708        9.63897208818621
C           23.66947556791617        2.64768697239187        9.41363271255147
C           23.92251374526247        1.40875085266514        8.83784260278285
C           22.87607604125192        0.57022515552142        8.48519284569945
C           20.07226138160687       -1.45736642267103        9.40480769611736
C           21.08390607009775       -1.76760244659475       10.31458415573586
C           20.92396073946817       -2.82577832458644       11.19726854881652
C           19.75563719151792       -3.57536598672241       11.19328535723658
C           18.74331505740471       -3.27449884342134       10.29169512018259
C           18.90317139212540       -2.22451740843214        9.40473082700467
C           20.63509234686180       -0.78711524990399        6.65771922782669
C           21.20061508335067       -2.05854540273632        6.54666473435281
C           21.60900375710689       -2.53446054283925        5.30962029146097
C           21.45504324260168       -1.75288707704135        4.17259961023861
C           20.87942846651348       -0.49268349081789        4.27145759953158
C           20.46920675751650       -0.01534390069193        5.50513876696619
C           17.33549901205862        0.37388992674845        3.11824491753296
C           17.40258329773829       -0.04183312555703        1.78554633768357
C           18.19597000551228        0.64360566819331        0.87810504061682
C           18.92399942509858        1.75664012640693        1.27910308823828
C           18.85935691100548        2.18368359735519        2.59828022193735
C           18.07134454172274        1.49443813012372        3.50505242737219
C           17.10961051711744       -1.99197712880370        4.80548668471497
C           16.72497841203909       -2.58352758561244        6.01171985956023
C           17.30995593529483       -3.76044320097333        6.44541135241283
C           18.29409601787239       -4.36462424464003        5.67451396554578
C           18.68554142642367       -3.78629280244131        4.47449183027897
C           18.10363340665321       -2.60432710207806        4.04012031532294
C           14.82407559822860       -0.92826966065529        3.39671267326231
C           14.72535375106576       -2.15430966118721        2.73591536532968
C           13.61638467800741       -2.43724745787228        1.95251718093213
C           12.59515407693846       -1.50575538763056        1.82149085635905
C           12.67549641910240       -0.29177527768759        2.49118757685763
C           13.78035664282380       -0.00797333911776        3.27708888706208
C           10.18526107586518       -0.52153043573464        8.04493423930022
C           10.25637327430681       -1.71045287796108        8.77469500390521
C            9.33127429453605       -1.98052394911536        9.77084259963110
C            8.32163239117852       -1.07055119534617       10.05051738123769
C            8.24789399223484        0.11901988430484        9.33766393392900
C            9.17962455588250        0.39975749059281        8.35218432626341
C           10.58600159156633        0.77715710345857        5.49541698587302
C            9.30141980674841        0.43189039934684        5.06457654709972
C            8.69166768346139        1.14678187426867        4.04466680204375
C            9.34635350284238        2.21393073275825        3.44250919775055
C           10.62108190823517        2.56792187991558        3.86349039797965
C           11.22991614368746        1.85255204478600        4.88140137496583
C           11.98233099901560       -1.69415997020871        6.14251526911141
C           11.45127477004457       -2.25484527931073        4.98007957570419
C           11.89601741246782       -3.49227331002030        4.53926179904264
C           12.87045992757248       -4.18374986651947        5.24668969360021
C           13.40605674308582       -3.63327226228367        6.40272108844937
C           12.96826935811706       -2.39525113340366        6.84174845063739
C           12.15860475117156       -0.96792733665346       12.38737947950067
C           11.67835658761842       -1.63077262781081       13.52192127302682
C           11.60393901100917       -3.01483612606902       13.54048516169260
C           12.01378745775498       -3.75577488838100       12.43918144206753
C           12.49640121570303       -3.10862744032192       11.30998300340587
C           12.56250788790090       -1.72547026238579       11.28591876698015
C           12.76834600625572        1.36771824567780       13.96739372024130
C           12.27257544503886        2.56065629056075       14.49910335548983
C           12.68747655733061        3.00025092651071       15.74679093976619
C           13.60325073105851        2.25748834289301       16.47987433633203
C           14.10733801630318        1.07432075008743       15.95693676108539
C           13.70245134294730        0.63639786648668       14.70625846245681
C           10.66532889608900        1.52774204040063       12.05470449577327
C            9.50026955513741        0.90571828855153       12.50673736507301
C            8.26942279581566        1.52128524681513       12.33455022406988
C            8.18085614404763        2.75451990592677       11.70067122637973
C            9.33247863785044        3.37748329797561       11.24001307183636
C           10.56221414573522        2.76825561613999       11.42244889234492
C           17.51447554247685        1.84644353341487       14.36451371661790
C           18.42298731081601        1.98785381838068       15.41651310986609
C           18.25571663894512        2.99321505794454       16.35702727734997
C           17.19123906462446        3.87913848966398       16.25620106260395
C           16.27920613908385        3.74507290863796       15.21830727508936
C           16.43801987140034        2.73276899388090       14.28740223850356
C           16.86563922100817       -0.87215290155984       13.57371959687383
C           16.65103008673089       -1.19206337644540       14.91742876704140
C           15.95498437369366       -2.34370096632623       15.25466187692161
C           15.46835379706506       -3.18625693554921       14.26286012681336
C           15.68791054723246       -2.88280113409171       12.92640629287386
C           16.38078082315116       -1.73345672751684       12.58746538162728
C           19.49164127340871        0.23493369870976       13.09917098722144
C           20.00249697430176       -0.81987257024532       13.85845764623572
C           21.37147668859780       -1.03064512511270       13.93037522995687
C           22.24509919231317       -0.19641963253407       13.24582931089342
C           21.74543434166934        0.84484049190962       12.47460351370891
C           20.37819813141767        1.05500824309279       12.39754224768655
C           20.51757472384191        9.93483002967761        4.58077056163480
C           20.41073453239912        8.73651476094566        3.86691682348915
C           20.53117094726614        8.72524623864268        2.48765227244523
C           20.74768919211596        9.91216183930989        1.79940836516635
C           20.84321965722045       11.10725647991616        2.49764748963136
C           20.72235128724524       11.12340702988115        3.87915006451457
C           20.70797215253676       11.54313129769255        6.96430220305079
C           19.65117586681080       12.42361745402117        7.20917188401638
C           19.89482066246287       13.72358690257832        7.61947845242929
C           21.20162695822701       14.15889373256236        7.79255844914169
C           22.26002516193011       13.28886384665259        7.56010897887497
C           22.01969629808110       11.98616089922402        7.15096922636882
C           21.61681083388327        8.75644020381854        6.94070223084728
C           21.40546054875883        8.03682868661451        8.11844676629476
C           22.32049588385641        7.09382646511482        8.55510905889045
C           23.47473270515660        6.86121540322141        7.81936393818289
C           23.70683582932872        7.58102007727941        6.65475041374671
C           22.78552419404615        8.51900262614849        6.21272344779671
C           16.76528063379184        8.24285560781897        1.90790475386814
C           16.51815554003866        8.10651512263363        0.53898337339004
C           17.06166739680355        7.04392264794651       -0.16728850429293
C           17.84742449976461        6.09717296266322        0.47739297855721
C           18.10109636280886        6.22235465167268        1.83643754625345
C           17.56580911872922        7.28957144510527        2.53855937797258
C           14.42564292121368        9.85400343351018        2.12332898948600
C           14.00182878060671       11.13029172911688        1.75095435456548
C           12.75214746607473       11.31212977874746        1.17790144962010
C           11.90562973712944       10.23008836215709        0.98414396059813
C           12.31312919939841        8.95777787124562        1.36405235619132
C           13.56057453758351        8.77082519700517        1.93517085203951
C           16.97255016263019       11.07147677974637        2.68427214079920
C           17.09628479491154       11.94172394767577        3.76956571655959
C           17.76276802391604       13.14862019627790        3.64047756964503
C           18.31862239948333       13.50036354005644        2.41834434062010
C           18.21113432609284       12.63827297027924        1.33335259959491
C           17.54535543660793       11.42890485130821        1.46086344071688
C           10.57549931115316        9.01937940452957        4.72538804893810
C            9.23038431715332        9.16090910378782        4.37136247658384
C            8.60289610921932        8.19097361493914        3.60458966536306
C            9.29603260512816        7.05909881281373        3.19465745250875
C           10.63086009942135        6.90523793235482        3.54273895344848
C           11.26084550039558        7.88338975442486        4.29380167157636
C           11.84387271252235       11.67835439422599        4.84744808906819
C           13.06111276270757       12.31149685049308        5.10649576844073
C           13.41352174023655       13.47874387074282        4.45045801602208
C           12.54525974423876       14.03225393275183        3.52007932372419
C           11.33267351247468       13.40973185027068        3.24751464394217
C           10.98082896905882       12.23901198755808        3.90180469357922
C           10.14491246863740       10.71411326865915        6.96113906607614
C            9.44981918243733        9.72473938714974        7.66494891137370
C            8.47086024195860       10.06989929098557        8.58124153389560
C            8.17912963363998       11.40724287878053        8.81734788643734
C            8.87143297754441       12.39521227159004        8.13234469611143
C            9.85506136815482       12.05495107166804        7.21568829480921
C           12.29081416414873       12.56358776709029       10.14242669960138
C           13.18326937805479       13.06570536684246        9.19275220322888
C           12.91856635588798       14.24479434792949        8.51808192704596
C           11.75473093075383       14.94865207569898        8.79581128549991
C           10.86070973081590       14.46377754812100        9.74232071488620
C           11.11720452205097       13.27362646785924       10.40749800879310
C           13.45370952236088       11.53582149078915       12.57366522907951
C           14.28290978677110       10.63351257328371       13.24405586179456
C           14.79780843405985       10.93940769001316       14.49310362765305
C           14.49988886721103       12.15951253597038       15.08572728141180
C           13.69570755744030       13.07360074770717       14.41842979848880
C           13.17554270385276       12.76752008192433       13.16962551862264
C           11.21443022843578       10.17732665766884       11.45621950856771
C           10.81896282947511        9.06295120672089       10.71415563214607
C            9.72149177058281        8.30511570426431       11.08733396605314
C            8.98181666343042        8.66974945485234       12.20434710475227
C            9.35018442151670        9.78831575602779       12.94084078854732
C           10.46384723290377       10.53174014062247       12.58036481464327
C           18.17085435142405        9.87611038494368       13.13900929183177
C           17.31364087737548        8.78966591744734       13.31739373516560
C           17.27711530355679        8.09093158473347       14.51270766818265
C           18.10813007602298        8.47488501110029       15.55641508687210
C           18.96884970307662        9.55343207578270       15.39391914998977
C           19.00699453780151       10.24948498333978       14.19516963430471
C           19.95876513812223       10.98896557895643       11.20240168657941
C           20.50186069485787       12.25715044886951       10.99636118690498
C           21.84910059454124       12.39805701455454       10.69836452038100
C           22.66331034650372       11.28011600555990       10.58697300553247
C           22.12921419324079       10.01244611146687       10.78164625633628
C           20.78619082981877        9.86698836299450       11.08491969945181
C           17.43712052518308       12.33445012925054       11.69718359153658
C           17.08600283714193       12.98906068903520       10.51146707184567
C           16.43312795395876       14.20855341328923       10.54043385008604
C           16.12064962220485       14.79305507161863       11.76088184209873
C           16.46960122076559       14.15558910002744       12.94381445360855
C           17.11979234736640       12.93028210080590       12.91802018157741
C           19.30634072358216        5.89951652579952       12.02268544690519
C           19.28920703023582        4.67740996144593       12.92163343763730
C           20.40020199545031        5.09400757566305        5.94050778969013
C           21.14308107758838        3.79591735450581        6.19539156539873
C           14.79323038005609        4.83532739899299        3.01218106623892
C           15.23697925090064        3.44636509723129        2.59295936125165
C           10.41134399426771        5.47564993530419        7.39189944199165
C            9.78072502301600        4.12735038430461        7.09854041725830
C           13.19086533608602        5.84410283543780       12.91752379510629
C           12.67656493054507        7.25060962891677       13.16023203394506
H           20.29494590294466        2.53088456155683        9.45936936901679
H           22.13853244341150        4.01647299857236       10.07817409814047
H           24.49223881664794        3.30072366159619        9.68036034518065
H           24.94396958810373        1.09484398167532        8.65642961970142
H           23.08472682365192       -0.38723861614428        8.02120779726742
H           21.99370025796003       -1.17854682645766       10.33859969183610
H           21.71675246037041       -3.05963637627331       11.89853089349239
H           19.63356773436446       -4.39217239352335       11.89492173478526
H           17.82345441251085       -3.84702805863918       10.27952802429946
H           18.11082954459433       -1.99046517569567        8.70275668356851
H           21.32141298963300       -2.67592088450005        7.42931630263873
H           22.05175882767449       -3.52087577318080        5.23489333541387
H           21.77843252703221       -2.12721247103733        3.20844846900820
H           20.74873767904457        0.11981024210165        3.38659972517049
H           20.01664585389865        0.96750198366010        5.58179321418204
H           16.82304059193898       -0.89624295076306        1.45462123490790
H           18.23967722175160        0.31033005779089       -0.15236598730807
H           19.53448750917554        2.29357242225583        0.56247781331080
H           19.40695122010839        3.06003315760982        2.92921265253700
H           18.01715225428757        1.83827560767336        4.53117941270556
H           15.95874310079133       -2.11239456968595        6.61597163898292
H           16.99570298041218       -4.19691215284118        7.38622551022773
H           18.75966449181626       -5.28394017715877        6.00983857523637
H           19.45509275519909       -4.25482217176886        3.87179359077116
H           18.42920336204877       -2.15361786196339        3.10943416698904
H           15.51659134899622       -2.88845467242433        2.83643773590137
H           13.55173816979794       -3.38982402531370        1.43965799703003
H           11.73300486376998       -1.72840418350455        1.20393456930602
H           11.87690279376898        0.43587098125964        2.40235027901978
H           13.83989745532110        0.93756872179373        3.80544143357641
H           11.03394374395082       -2.43379889516128        8.55822375949490
H            9.39990491045767       -2.90774983218666       10.32807687004339
H            7.59375841684667       -1.28602033062588       10.82386241927268
H            7.46460845033883        0.83606421011817        9.55484665412142
H            9.12097844740400        1.33600998227503        7.80877441310248
H            8.77559784382718       -0.39067021472056        5.53567619319311
H            7.69525979399122        0.87031583753067        3.71979667540615
H            8.86099405172398        2.77096099880311        2.64959356912426
H           11.14700295445364        3.40385376497613        3.41383710280428
H           12.22151847527368        2.13874864637840        5.21193110531181
H           10.69366989231426       -1.72373790664733        4.41523108644878
H           11.47719637995949       -3.91800581782189        3.63465095440388
H           13.21268726416742       -5.14975763857909        4.89446128692316
H           14.16531702089713       -4.16075439447150        6.96794338882275
H           13.39812323275360       -1.96495674011617        7.73782043729237
H           11.37584654308113       -1.06301502148539       14.39449060180668
H           11.23105534323961       -3.51818977623368       14.42505772271604
H           11.96436752399580       -4.83793262926892       12.46564562830122
H           12.83939829450877       -3.67454166877476       10.45200142820554
H           12.94560469190874       -1.22412450371426       10.40440955147746
H           11.54902544909845        3.14199711707250       13.93880010486727
H           12.28860923762905        3.92393407176365       16.15018373954027
H           13.92469075663582        2.60037547208891       17.45623303295073
H           14.82339355067154        0.49067149015216       16.52386455199943
H           14.10607460074482       -0.28447575645868       14.30130197811699
H            9.55458691152358       -0.06196992842644       12.99209982854389
H            7.37204918866603        1.03217395757099       12.69557722921467
H            7.21485010385112        3.22651421460058       11.56499156827637
H            9.28487828249069        4.33597286517134       10.73345534509592
H           11.45935774438136        3.26120697908884       11.06540397055498
H           19.26982276233710        1.31588191330371       15.49477285409039
H           18.96884816677926        3.09173920620321       17.16730638399410
H           17.07482779459894        4.67491352580167       16.98267453661844
H           15.45151044654277        4.43840778808278       15.11831380716536
H           15.72150805270466        2.63092347425100       13.48013520808026
H           17.02202537825688       -0.53528803893022       15.69635912727245
H           15.78918855915120       -2.58163083366265       16.29909537288798
H           14.91613300994626       -4.07854121361859       14.53384632530211
H           15.31392662959310       -3.52927072710163       12.14114435051793
H           16.54622368779322       -1.49773668936542       11.54305893378999
H           19.32799424806554       -1.47679088362165       14.39548350376623
H           21.75692947832785       -1.84782887508604       14.52889514723355
H           23.31442413729996       -0.36011338022062       13.30876822294917
H           22.42158968275710        1.49608482434280       11.93274329796204
H           19.98880077455628        1.86448172715846       11.78955796485335
H           20.23958623212017        7.80854303134596        4.40246822803822
H           20.45307067497040        7.78852249388867        1.94798368559476
H           20.84006527056288        9.90419155417634        0.71973680300686
H           21.01080230754809       12.03587184311998        1.96471767410923
H           20.79281210403311       12.06325651463471        4.41416642601000
H           18.62943880086764       12.08946746842184        7.07150147913612
H           19.06104122498958       14.39207150746393        7.79972766298692
H           21.39799448121069       15.17604033740210        8.11072112514496
H           23.28066342873224       13.62722648721062        7.69688083438525
H           22.84977504508172       11.31103458375353        6.97505976124208
H           20.50390598015893        8.21301339717363        8.69371761533536
H           22.11492581778389        6.53002969495857        9.45899209927314
H           24.19001558272828        6.11735223675367        8.15074173280734
H           24.60785298773180        7.40425808512289        6.07874808810489
H           22.96884074975162        9.06043189953162        5.29185451558132
H           15.88819591171321        8.82562769576451        0.02817611283853
H           16.86134830452696        6.94950376212309       -1.22833817278913
H           18.25714181500161        5.26134456708882       -0.07780526397017
H           18.70285230509694        5.48816193638492        2.36203492740020
H           17.76652679111455        7.38277350661954        3.59917527353645
H           14.65254648108600       11.98346489839763        1.90385783278231
H           12.43882397589340       12.30672416228221        0.88292301783793
H           10.92893744866926       10.37652037197542        0.53813503451415
H           11.65585180609406        8.10850894217729        1.21731837062971
H           13.87546709810050        7.77573289911108        2.23209853469996
H           16.65958263906485       11.67403641431759        4.72425914635699
H           17.83879613277510       13.80937916566774        4.49624002888868
H           18.83831664246970       14.44493952903695        2.30874405825139
H           18.64675819404968       12.91076319839467        0.37894663991867
H           17.46929209655762       10.76103200810587        0.61016423017816
H            8.66914362174467       10.02448143209497        4.70923317681856
H            7.56009273576603        8.31420387059026        3.33584431939094
H            8.79442589404553        6.29646939448522        2.61038571995718
H           11.18679274668163        6.02180406217634        3.24570033745941
H           12.30417153413410        7.75967448846116        4.55865816780352
H           13.73913154918143       11.88758990178615        5.83752186022996
H           14.36265027519606       13.95072026971975        4.67695059183886
H           12.81084512111746       14.94795065252609        3.00509357640610
H           10.65278773246841       13.84116616451466        2.52187649669369
H           10.03466108700729       11.75964621889227        3.67794683236595
H            9.67462954710058        8.67877800871332        7.48226207486189
H            7.93425820330094        9.29343465802891        9.11401337416892
H            7.41231098024285       11.67722234881917        9.53382636320366
H            8.64487762947994       13.43992231546496        8.30991073563996
H           10.39367797712331       12.83551755515598        6.69077147617615
H           14.09768361765904       12.52425177720430        8.98077542275558
H           13.62553836438991       14.60603791274008        7.78016983403970
H           11.54161134456426       15.87477557337216        8.27506373095993
H            9.95443955937961       15.01535129390788        9.96486355693106
H           10.40129156408287       12.89235568643513       11.12686926958094
H           14.52411125611695        9.68378640825059       12.77895111853393
H           15.43263087479551       10.22405529676335       15.00330139206173
H           14.90007403614932       12.39996437488248       16.06361206783931
H           13.46813184783580       14.03064644142280       14.87329952443570
H           12.55268005759734       13.49041922155748       12.65541284080367
H           11.38910457607941        8.77821307745040        9.83737982007067
H            9.46065095784739        7.42307801574895       10.51183855387189
H            8.12380936074703        8.07990243078224       12.50480949275311
H            8.77515504530237       10.07543186653424       13.81360789117634
H           10.76042904459629       11.38202025346567       13.18397161977656
H           16.66791363007544        8.48272895354491       12.50319466777882
H           16.60364876230090        7.24601179308403       14.61480820151573
H           18.08984809064650        7.93171873088629       16.49412755246423
H           19.62110992564341        9.85191607452202       16.20651534095669
H           19.69393515150653       11.07921786640988       14.07289564572521
H           19.87148772541550       13.13554729592274       11.07222225546531
H           22.26269235947217       13.38835608475835       10.54768787694269
H           23.71376442643513       11.39491453337440       10.34679091603598
H           22.75982069967136        9.13525221837895       10.69266973148557
H           20.36920001671145        8.87660447774612       11.23781005533852
H           17.32153597999454       12.53155034443090        9.55712292272120
H           16.16332481435763       14.69099128194711        9.60817190360904
H           15.60155625903187       15.74385889768692       11.79107163642561
H           16.22654914167946       14.61039105568342       13.89727910531683
H           17.37321393975393       12.43345330671559       13.84771024569595
H           20.07621634144962        6.59921603450936       12.35318820127547
H           18.34318802632366        6.40858980877986       12.06687823534934
H           18.49693897889019        3.99542835844537       12.61171233011416
H           19.10708513409116        4.97592129759244       13.95545281171634
H           20.24109471466654        4.14949786858317       12.86947975640094
H           21.00069423517670        5.75312428118129        5.31087620187560
H           20.20670125447023        5.60738523869276        6.88294538169302
H           20.55244142751003        3.14793695230581        6.84336254044535
H           22.09731090674853        4.00132022161434        6.68349955928324
H           21.33021739286772        3.27165832437694        5.25848605204344
H           14.37050283345967        5.36801864423876        2.15821260596194
H           15.64782724670443        5.40498232373298        3.37851496689021
H           15.68419202576116        2.92435972687122        3.43933438620454
H           15.97909433639545        3.51666492942977        1.79579990965919
H           14.38844043710510        2.86373945235418        2.23520269651067
H           11.14616769495596        5.72249755867175        6.62488605153099
H            9.64897257491058        6.25682248689859        7.39804756440316
H           10.54942481511039        3.35456071460343        7.07333983610900
H            9.27634543904436        4.15069829645193        6.13128920764505
H            9.05578663183682        3.87026345146559        7.87063013778870
H           12.70415169479479        5.41133425027482       12.04310926459465
H           12.97433225610818        5.21053523721458       13.77903769109514
H           13.18573441574784        7.70286271684535       14.01096077177077
H           11.60410765352848        7.22804622894460       13.36029524942039
H           12.85335348178622        7.86995472248424       12.28054431001304
