349
 energy: -558.655042496142 gnorm: 0.000169261248 xtb: 6.5.1 (579679a)
Au          14.77144075776765       20.72422950582636        7.34955084235129
Au          13.66594864219807       18.71050359370747        8.99999892946064
Au          14.80309817858480       21.28497687802418       10.19124615069193
Au          14.62888241590615       23.48592460924254        8.40502528220307
Au          10.54574977863516       18.50118763205479        8.80761545923447
Au          19.57959947753486       19.89644055218519        8.05472298483632
Au          16.54231837217554       19.16274821182159        9.16037814116947
Au          12.36226815029354       23.59227974800205       10.45208191229557
Au          17.30870147691588       21.98820410868848        8.30797239429393
Au          12.26020922722347       21.21048723399517        8.64534516751499
Au          16.14239554892451       23.98288111987291       10.92667811637972
Au          15.72705278197196       19.20738795198529       12.10833301195511
Au          15.29959168840618       16.35611035313516        9.55030530215638
S           12.00410927367553       17.13576642930500       10.08941114755132
S           18.28398228124201       23.54335639523377       10.01777354852329
S           15.55120913381294       16.86987348783283       11.84564000928827
S            8.85888481516045       19.74434686934398        7.71124414691791
S           15.87597201295756       21.50288454684022       12.56774860899912
S           14.02546946429747       24.64093401324189       11.77926446013126
S           10.40049745218903       22.74302018216519        9.42523640597785
S           18.77760308120458       18.06018512507482        9.31709543009914
S           14.10427586151096       25.71375274607055        7.41502491254935
C           13.85767031058336       26.38387976156532       11.34872244674346
H           13.84004409122787       26.49717454062395       10.26471523699877
H           12.89783807804706       26.71925507302177       11.74077311812344
C           14.99714925674956       27.20828540822210       11.94834042761644
H           14.81870106728674       27.35689351569942       13.01719778688587
H           15.93483704012997       26.65639549909740       11.83943790178411
C           15.10568076793055       28.52808760036843       11.22756303858381
C           16.23627681489326       28.82137949851302       10.47006426610674
H           17.07011408915364       28.12746596353791       10.45550587373966
C           16.30759050385350       29.99961781921539        9.73952818742214
H           17.19195445056436       30.21417008085450        9.14985053696539
C           15.24778532148126       30.89474740751896        9.75798900627668
H           15.29860607681852       31.81036843800051        9.17982527468518
C           14.12488754816901       30.61769760388656       10.52642949648617
H           13.29858610466700       31.31937067911290       10.55375325716806
C           14.05422040517144       29.44203446533135       11.25949831123827
H           13.17819332344989       29.23628197764161       11.86515391310889
C           19.02579476561990       22.42464428536009       11.23303906775296
H           18.48694484575605       21.47732699378182       11.25783051462832
H           20.04307698167062       22.23343643911482       10.88930390014830
C           19.04410435347260       23.03215927001081       12.63539756098017
H           18.03284113347317       22.98565989173235       13.04895461053126
H           19.69498840244822       22.41656920669291       13.26603445550118
C           19.52876264573256       24.45893065172704       12.63389758013639
C           20.83385272508238       24.76341241743387       12.25354156021240
H           21.51478343203021       23.96642546793277       11.97327370727369
C           21.27107471956326       26.07950579497326       12.23536310352705
H           22.29087700542591       26.30463226061670       11.94328033654086
C           20.40721606422854       27.10789776582410       12.59178904947600
H           20.75212556254365       28.13555073634244       12.58483381346383
C           19.10370184964749       26.81268118822597       12.96560957864520
H           18.42276626019432       27.60994398314804       13.24240272711774
C           18.67025646171662       25.49481160668405       12.99002333541231
H           17.65511465529440       25.26882570342815       13.29860137635887
C           15.50880032243845       26.77447749885962        7.77655725055139
H           15.32683292852778       27.73034657417535        7.28387710439362
H           15.51357293089244       26.94122323660094        8.85362083034160
C           16.85799385519206       26.21433472084076        7.33969148250672
H           16.85614500396924       26.07479818373590        6.25435983179398
H           17.01354020380187       25.23633141244620        7.80341657184525
C           17.95724560978921       27.16266063294346        7.73561814738545
C           18.14162317302658       28.34656065089053        7.02342523474368
H           17.50474666723038       28.56787947613018        6.17324834056664
C           19.13491313854365       29.24192032476400        7.39456188325735
H           19.27194097483378       30.15853226242928        6.83185286451541
C           19.95548182650329       28.96064990148790        8.47915681493347
H           20.73472089234847       29.65729153282439        8.76638938074586
C           19.77560245752737       27.78426952912889        9.19207063671903
H           20.41454377217912       27.55724593134719       10.03751757752835
C           18.77752751407272       26.89068547710755        8.82747735284108
H           18.64413498680765       25.97169241225827        9.38947477843362
C           14.55989543091866       21.88694901813615       13.73783246210926
H           14.91232284715112       21.61835633658167       14.73454317582416
H           14.41480834929823       22.96787389672147       13.69963591693515
C           13.23200613835805       21.18851172425995       13.45549757266820
H           13.35104487434967       20.10840193167524       13.58600629963077
H           12.94034236907648       21.37073618534179       12.41647563732449
C           12.18474364876213       21.73026880950105       14.39238867669764
C           12.11984364004368       21.28211413219058       15.70939354248006
H           12.78988285356848       20.49815235355175       16.04566516323472
C           11.20040191810583       21.83153341215806       16.59100526915067
H           11.15864757480220       21.47745559744478       17.61494934923279
C           10.33106519316608       22.82744020042845       16.16427719214570
H            9.61072154653874       23.25255336369209       16.85366733371730
C           10.39021450885562       23.27822966283770       14.85262771283164
H            9.71649707093825       24.05637578169049       14.51160407587033
C           11.31927983262978       22.73702470495353       13.97730850109017
H           11.37945089651628       23.10734998933930       12.95894231801319
C           11.74611003143242       17.73722972401178       11.77480017062203
H           12.33055250885936       17.08604525815521       12.42668994468580
H           12.11319498933165       18.75761419927308       11.88719665029203
C           10.26476924179315       17.66395562681847       12.13476762288758
H            9.71186703739418       18.35128554104267       11.48729798710669
H            9.90166714685826       16.65261721536258       11.93076801361656
C           10.02850713546392       18.01628295213914       13.57977762733911
C            9.56652895272638       19.28010554814339       13.93180388508372
H            9.39660331123902       20.02572037038911       13.16307952713187
C            9.30002711113122       19.58557899982316       15.25808437630555
H            8.90879521679337       20.56318755628352       15.51545702555886
C            9.52964338805412       18.64306234880380       16.24998520172720
H            9.32390729333532       18.88347012786112       17.28692284236352
C           10.02274312780986       17.39077753621629       15.90892477178774
H           10.20884485871336       16.65176138645580       16.68044343306488
C           10.26382964951205       17.07572394820678       14.57978133353039
H           10.62804916353905       16.08846463169291       14.31556884483277
C           17.22829364061985       16.27901942816166       12.17911846886483
H           17.90277518367142       16.55476751661734       11.36576936469846
H           17.56864369692448       16.76708103976123       13.09150972458740
C           17.22086320360828       14.76433460350787       12.39643140285350
H           16.45914926437920       14.52348440754758       13.14292539047269
H           18.19744294114923       14.48249752849505       12.80391462701738
C           16.96593526084349       13.98438124267467       11.13290366661687
C           18.00856217241095       13.71985538637577       10.24703011086283
H           19.00609743683225       14.08644388834738       10.46480861970003
C           17.78678670990071       12.96394268988455        9.10458118594732
H           18.61376546284713       12.73887252160669        8.44082458090806
C           16.51648311248987       12.47832114307710        8.82235994885508
H           16.34642905169831       11.88432773544837        7.93156371868517
C           15.46953810849024       12.74679048534084        9.69242063827815
H           14.47685575507910       12.36139295463672        9.48716422265188
C           15.69187446115704       13.49611290400729       10.84151617037852
H           14.87674992898705       13.67558345635587       11.53325930844351
C            9.55631718231929       21.78928198942634       10.71178228634469
H            9.90966037501721       20.75802287656417       10.71299580742451
H            9.76980185910854       22.22682352561796       11.68581552022402
C            8.05279288119795       21.82411231015341       10.44637693930454
H            7.84498372539897       21.33535567618108        9.49047026677775
H            7.72388835396935       22.86471257706205       10.38136442933423
C            7.35078917317245       21.11116239263195       11.57271289426128
C            7.05177901643390       21.78902933548740       12.75242358863492
H            7.28293943210394       22.84555828298423       12.83988957570222
C            6.45737223997631       21.12133171119203       13.81347124173435
H            6.22543706957214       21.65817337879934       14.72664363385547
C            6.16307740219005       19.76859068784568       13.70737365943444
H            5.70318971312048       19.24538553952291       14.53790943639554
C            6.46480106489751       19.08715468450702       12.53674847297673
H            6.24104889397313       18.02967514656187       12.45327483571048
C            7.05902572285841       19.75334926504731       11.47448914621572
H            7.29544374631134       19.21685743106664       10.56141295312482
C            8.25108164328326       18.61716883937197        6.43139180899485
H            7.85817714560328       19.22492509099860        5.61677764123469
H            9.06967440039357       18.01013753233500        6.04164938038867
C            7.12804848422976       17.73862565621455        6.97835890757657
H            6.28783018050432       18.37792941066466        7.26413728046620
H            6.79006954858609       17.08911085231967        6.16183293300708
C            7.52604453050096       16.88038194930609        8.15343300390734
C            8.66515927195600       16.07800947778101        8.10663186402782
H            9.27362323255242       16.05307235339970        7.21006266134062
C            9.00854706019522       15.27741028719890        9.18803555785588
H            9.89921077324681       14.66197220084525        9.13864644582343
C            8.21656537477399       15.26277913545085       10.32670047475703
H            8.47949635518767       14.62870238309167       11.16560310832993
C            7.07651023084195       16.05263699049283       10.37757707118383
H            6.44506961305354       16.03669559425374       11.25889691204627
C            6.73692469942167       16.85961429674447        9.30044822270618
H            5.83959081862856       17.46740398863184        9.34679579344884
C           18.53121075901781       16.77867065052763        8.06973004719606
H           18.01938748525042       15.96287931958628        8.58015081523110
H           17.87833072829581       17.14504021307734        7.27829156290053
C           19.84181703657340       16.28712835241642        7.46740710292664
H           20.38897939162116       15.70146919753210        8.21379673233362
H           20.46235570375162       17.14856337936768        7.20588019418079
C           19.60789206772144       15.45205281874306        6.22924683867844
C           20.47528880652052       15.56756417056092        5.14484678981311
H           21.30712680985429       16.26223074683169        5.19552872474747
C           20.27922215567799       14.81398560732900        3.99701114949624
H           20.95835643341930       14.92380268833065        3.15872401772078
C           19.21874945030981       13.92114806109714        3.92118684291762
H           19.07060289948231       13.32316755443866        3.02909156409815
C           18.34959959297968       13.79981213568920        4.99638574455259
H           17.52130834555433       13.10104476556344        4.95325275747495
C           18.53490479183447       14.56921590337054        6.13588217293327
H           17.82362274034875       14.47983666677125        6.94853099494793
Au          15.88026576833241       22.73625476646161        5.70015721434233
Au          14.74248495309595       20.16398199254119        4.50671740705452
Au          14.91483793995334       17.96232591607295        6.29275518541894
Au          18.99413542094410       22.95171937653503        5.88793021107175
Au           9.96755927826756       21.55529658334501        6.63935182043974
Au          13.00343022672587       22.28554379822756        5.53641693893156
Au          17.18099225105867       17.85591022021943        4.24353196373969
Au          12.23684698991189       19.45989038182653        6.39106365662993
Au          17.28278275476163       20.23404574785884        6.05612828892109
Au          13.40096291121731       17.46563768447682        3.77137544439689
Au          13.81807787110688       22.24090799432197        2.58911891629941
Au          14.24875784222779       25.09156841401427        5.14518856398603
S           17.53420177421372       24.31810682226924        4.60799080713978
S           11.26003792058615       17.90710207555250        4.68008744372205
S           13.99686028002998       24.57853011000788        2.84923755306993
S           20.68354671021284       21.70848223817570        6.98051356701637
S           13.66681783630439       19.94511862526520        2.13122307588123
S           15.51685861375450       16.80543325399179        2.91852394560650
S           19.14377827043778       18.70681191021747        5.26748141445231
S           10.77059944986551       23.39183984886330        5.37749005032784
S           15.44043226628496       15.73381218073906        7.28081231161476
C           15.68386439607557       15.06299549630809        3.35135081473901
H           15.70088004275017       14.95125987172973        4.43553088769324
H           16.64380097349629       14.72681487470110        2.96027726053777
C           14.54456577532037       14.23791283929059        2.75228668882903
H           14.72337060764897       14.08817365295323        1.68364628218832
H           13.60674971238510       14.78979288670977        2.86028458892263
C           14.43618646789681       12.91883498489593        3.47447121764633
C           13.30540590181627       12.62585879592366        4.23182602734351
H           12.47118728732648       13.31933603645946        4.24518471217288
C           13.23437111805985       11.44848240771572        4.96379127449311
H           12.34985254466394       11.23421232891962        5.55334489240459
C           14.29464609666137       10.55387730266903        4.94692560052171
H           14.24406849675476        9.63896892857046        5.52623935955237
C           15.41769732227897       10.83052924435295        4.17856728116990
H           16.24436545104634       10.12924157167097        4.15244832700347
C           15.48806388927606       12.00530656835985        3.44405413447824
H           16.36421034254144       12.21067395761458        2.83844499828242
C           10.52313482402796       19.02974545975023        3.46560312339746
H           11.06953815560126       19.97261311261157        3.43722432441869
H            9.50836778849054       19.22977764993307        3.81168906025529
C           10.49622288349190       18.41885894051768        2.06493894850199
H           11.50747606782433       18.45255354080673        1.65013674323685
H            9.85160093886355       19.03998349945207        1.43332610758540
C            9.99504369315025       16.99782412804685        2.07202481753774
C            8.68540703007566       16.71080461374410        2.45037493860456
H            8.01332322224756       17.51728610158378        2.72480636632958
C            8.23243925143483       15.40015911159605        2.47384090675499
H            7.20938728437757       15.18858647101991        2.76468999533330
C            9.08479275106694       14.35985766186868        2.12439993285399
H            8.72734159120034       13.33652174669425        2.13447041865853
C           10.39290386826214       14.63765591876471        1.75303068864140
H           11.06506047378834       13.83095334472634        1.48218715079692
C           10.84227001075062       15.95005036855434        1.72384667189808
H           11.86123105111577       16.16232680051009        1.41805566448461
C           14.03422347724952       14.67420140005812        6.92238063325848
H           14.21629425777087       13.71818506768497        7.41474145585726
H           14.02712276085947       14.50733321962334        5.84535301928810
C           12.68618903221604       15.23530833891128        7.36168433442345
H           12.68949636427406       15.37396615178504        8.44713064692968
H           12.53092945066677       16.21380586615884        6.89891740970279
C           11.58584970224004       14.28812332561929        6.96597809724200
C           11.39968579054157       13.10487055714663        7.67876357842197
H           12.03553712635526       12.88352572316902        8.52969757125850
C           10.40600507559381       12.21012495026413        7.30715780540264
H           10.26763278401040       11.29396120395875        7.87026949172967
C            9.58686511514930       12.49135665017887        6.22147876408109
H            8.80743299803106       11.79512376775724        5.93377212931205
C            9.76846026585013       13.66715366700127        5.50803297664381
H            9.13064566955900       13.89414315502479        4.66171002990935
C           10.76690338136918       14.56012240061736        5.87310928644814
H           10.90170337226236       15.47857612132581        5.31057697163263
C           14.98166189282628       19.56019661101817        0.96007324362217
H           14.62905710045458       19.83017119693968       -0.03619291801583
H           15.12530587382417       18.47905296165792        0.99722444485750
C           16.31065915093431       20.25656764502979        1.24228265542197
H           16.19309071784201       21.33695792898425        1.11273265992316
H           16.60259873763960       20.07312849203073        2.28101461808084
C           17.35663316266623       19.71407464204006        0.30442513732067
C           17.42040620471348       20.16207657553517       -1.01268839391119
H           16.75051040584502       20.94644206996796       -1.34829990853410
C           18.33855896129202       19.61197228915012       -1.89522938688020
H           18.37934198198371       19.96582647385845       -2.91928748663054
C           19.20776800744762       18.61560567505803       -1.46929587886690
H           19.92710451646952       18.18997126536204       -2.15941122937797
C           19.14970745594477       18.16495843992410       -0.15756594623420
H           19.82324836862447       17.38638785736126        0.18283220573501
C           18.22185505715322       18.70677045572419        0.71865615582775
H           18.16236906836236       18.33639885163436        1.73703732382066
C           17.79016493270781       23.71839515268917        2.92164803207951
H           17.20846342874023       24.37323074381196        2.27095520275830
H           17.41861733566773       22.69982404929577        2.80739279266961
C           19.27180336126587       23.78593858793881        2.56187449039504
H           19.82129880109584       23.09281335772060        3.20605235962995
H           19.63993941735932       24.79447960199457        2.77066124204140
C           19.50639464767750       23.43956554309505        1.11516431236199
C           19.96214504115574       22.17531249484147        0.75665956517961
H           20.12836778048807       21.42484044118030        1.52149046436489
C           20.22732115145215       21.87549620712461       -0.57120807683743
H           20.61393552085527       20.89741575210275       -0.83366622655460
C           20.00255869245273       22.82429557365444       -1.55820587966646
H           20.20737263704902       22.58831528576008       -2.59634240084200
C           19.51569231671010       24.07725049254029       -1.21068718651722
H           19.33349996124865       24.82125080348674       -1.97833888653701
C           19.27595937531883       24.38651131100084        0.12004274240266
H           18.91667138399397       25.37418695567046        0.38940613350111
C           12.32042913097711       25.17089390944592        2.51511868003744
H           11.64546768125581       24.89592868075095        3.32834155013359
H           11.97990461563560       24.68299283040423        1.60270395777516
C           12.32931851227183       26.68552667839607        2.29749613486904
H           13.09152536857781       26.92555715345067        1.55123666317450
H           11.35314012304615       26.96810839451184        1.88956360657159
C           12.58440364663733       27.46557650934945        3.56093261363170
C           11.54164604737066       27.73122789241517        4.44631238930851
H           10.54389414946676       27.36539107112878        4.22825707061446
C           11.76358785371736       28.48731434644348        5.58861280867774
H           10.93654353045808       28.71325281666025        6.25199673628083
C           13.03415716406040       28.97207308541369        5.87111429661533
H           13.20430536023698       29.56639513414802        6.76167288321384
C           14.08124771049245       28.70236696863096        5.00160574779353
H           15.07416412272360       29.08701698820241        5.20713614754765
C           13.85876731168767       27.95279159184022        3.85270889106880
H           14.67403384923785       27.77234131365066        3.16138626186955
C           19.98175842031135       19.66535452902074        3.98042484139662
H           19.62619635270970       20.69585441371616        3.98261546724821
H           19.76620100756250       19.22958332632342        3.00605360839927
C           21.48620592211438       19.63315284619888        4.24102229442240
H           21.69624623474871       20.12222854323458        5.19628238852300
H           21.81708194362894       18.59310713022342        4.30497749493983
C           22.18355709203824       20.34717513074502        3.11244736522764
C           22.47923518357355       19.66981600547652        1.93159338645366
H           22.24871956154236       18.61309978060138        1.84468051573069
C           23.06959206427140       20.33821077288814        0.86873070405895
H           23.29895348951381       19.80173896711201       -0.04531002865696
C           23.36310220141137       21.69117731468388        0.97412481197561
H           23.81980155109580       22.21493056394590        0.14217487160469
C           23.06464495351351       22.37212025759140        2.14587014284813
H           23.28777456450953       23.42977844812672        2.22882095057106
C           22.47450747456302       21.70520285101937        3.20996296001261
H           22.24080814619579       22.24131384350374        4.12395750711856
C           21.29338812820435       22.83513333793168        8.25988754647019
H           21.68793937448607       22.22703814971857        9.07344516049560
H           20.47533535791269       23.44172343289745        8.65142044676339
C           22.41523543519169       23.71417837126294        7.71126778485230
H           23.25485953644921       23.07513051164332        7.42318135886483
H           22.75495443490625       24.36305583928572        8.52757782931824
C           22.01467429179185       24.57337013894190        6.53775018011942
C           20.87584792690938       25.37593958062568        6.58790743201549
H           20.26944155132569       25.40014857414291        7.48589330235564
C           20.53016053820694       26.17759300136584        5.50803819847135
H           19.63982534572740       26.79327917429096        5.56007107851565
C           21.31949885050467       26.19308074128138        4.36754450375995
H           21.05477879444555       26.82803546131032        3.52987054056386
C           22.45927704279299       25.40303808655623        4.31332941428764
H           23.08869289245683       25.41965635102557        3.43057487625732
C           22.80117320402476       24.59501586009535        5.38894831543462
H           23.69830621988851       23.98713311183931        5.34000350766508
C           11.01667949702219       24.67285106729514        6.62544454574406
H           11.52902204028565       25.48863843625820        6.11556630765656
H           11.66899584427213       24.30605792675727        7.41714449999546
C            9.70584514800888       25.16457243851526        7.22705179717598
H            9.15902440987418       25.75000645739253        6.48023793524884
H            9.08525269968569       24.30313647347694        7.48842915040551
C            9.93881150809905       25.99996328765160        8.46518807729303
C            9.07026614792846       25.88467502259521        9.54869633166502
H            8.23859271232529       25.18986005225658        9.49729502908403
C            9.26484848648261       26.63872272928365       10.69646146583075
H            8.58469649063843       26.52916470407192       11.53395758445746
C           10.32511803920354       27.53172778491873       10.77315699644950
H           10.47206376070678       28.13016048681482       11.66514964509732
C           11.19555019553133       27.65270498453046        9.69895121618358
H           12.02375913604576       28.35152860788209        9.74292575252615
C           11.01158677642676       26.88296956198958        8.55943967017222
H           11.72370814946274       26.97222013578889        7.74750065096031
