385
 energy: -720.031742059306 gnorm: 0.000612952495 xtb: 6.5.1 (579679a)
Au           6.07818459319740       10.86218750248984       10.95443442465883
Au           7.13523434847341        9.11428862863553       15.56224598837021
Au           7.87383206286623        8.87889625131125       12.25859676596228
Au           4.12545129183864       12.23672015793574       12.51275330320102
Au           4.77773070640411       12.26068722838106       15.44284762464051
Au           5.00482400107986        9.49114532212104       13.22522980296817
Au           5.08294418300396       10.29106266910799        8.23693533256393
Au           3.46231880979589        7.01424987104103       12.76615540776089
Au           2.92260446854130        7.69012032804222        8.99501506154800
Au           5.42135093894423        8.01723809493905       10.61169946828529
Au           8.31248431472062        6.51983620648808       10.43363838153413
Au          10.77266270570606        9.33727681484286       11.47154048950074
Au           8.80966106169317       11.63290860195749       11.16707682763944
S            4.65075534578403        7.45683048593932       14.76856282271833
S            2.06900282542977        6.57155968106546       10.90292013957591
S            3.71299519890395        8.60897235675202        6.97710290575023
S            6.11933957853216        5.62481101639582       10.38075050189341
S           10.60412113258982        7.09360076980260       10.75177390975712
S           11.14938056233434       11.55350939088458       12.21139296293679
S            8.63453502627838        7.72238615586295       14.36407057086335
S            5.74896890321689       10.58134712846215       16.82788472948051
S            3.80055210710124       14.06821640303550       14.26931553203529
N            1.82777284265584       12.39596795129494       18.58082688969673
N            2.87031000985521       12.82977770036905       18.15841393938911
N            3.81629553689091       13.37354268023091       17.87811344954538
N            6.25387782130377        3.40122098059151       13.80362509649221
N            6.76058110608031        3.05968205820402       12.76116881448873
N            7.41069546712358        2.71856750380747       11.90948606574701
N           -1.06579839406071        6.61264324984525        9.39699806271251
N           -1.22346278126250        5.67295515019912       10.14245336502927
N           -1.44338435124744        4.93399552146828       10.96039764233227
N           11.77602694554800        9.84122866677425       16.00838965195670
N           10.87662497548219        9.20393830200080       16.49961305184202
N           10.02260590228004        8.77369278448656       17.09388453297133
N           13.23462405238392       16.41952353516310        7.66833470139042
N           13.95588429240109       17.13030114800282        7.00403844636724
N           14.49911642250536       17.93946132773235        6.44608550040733
N           -2.99367856253350       11.73946452911186       16.39724675852780
N           -4.18127169318075       11.88975989212516       16.57964535298299
N           -5.26232922227558       11.87329806752474       16.88431780050846
C            3.41752324124675        7.93946321507491       15.99306750141428
C            2.20620800544441        8.65779673513454       15.40365431763890
C            1.43247435194937        9.36820243749987       16.48267720706052
C            1.97445960196492       10.52497588910602       17.02973664086773
C            1.29812254980051       11.21475390424281       18.03192233615055
C            0.06989258353931       10.74935951560763       18.49848478262779
C           -0.46339679737415        9.59142322241878       17.95350805001527
C            0.21109335321690        8.89788635667635       16.95552784961067
C            2.32705587451146        4.82846134711109       10.51098364279506
C            1.82941083794435        3.93406470117616       11.64265260063185
C            2.71654757607832        3.97304051226472       12.85987490751775
C            2.18437311200194        4.26553672747516       14.11577322797857
C            2.99762969201597        4.26775476689259       15.24180604986026
C            4.34908965653844        3.98668674911020       15.13299407667257
C            4.88346496932712        3.69222723828621       13.87971695984554
C            4.07542865303871        3.68696397944518       12.74467086120154
C            2.27600713824140        9.58488899547197        6.47989704275422
C            1.29519673584896        8.74725733759824        5.65893451038418
C            0.83047099386128        7.50952393789820        6.37651110006991
C            0.05686092862864        7.60671844240190        7.52982776295957
C           -0.32422769902551        6.45381341649943        8.21426421617996
C            0.04156937070652        5.19339607790541        7.73980738740056
C            0.80319729040994        5.10458320740199        6.58507413273145
C            1.20375808243337        6.25008992397673        5.91130924795977
C            5.90320935904701        5.18157232358710        8.64210529648399
C            6.54282507144964        3.81331220049578        8.36708317095764
C            8.01154036007827        3.94539845473178        8.06397721886356
C            8.96679166870528        3.79264194118598        9.06413013859146
C           10.31852910339939        3.98006859318564        8.77219210868365
C           10.72978410506570        4.28668132667908        7.47566700538642
C            9.77210594111550        4.41697088122185        6.47972781410001
C            8.42426131508968        4.26661051253631        6.77110538791595
N           11.23506861666885        3.85969974872051        9.82932648040354
N           12.38268240265926        4.20985443181933        9.68159969112376
N           13.46500454822007        4.50825462034140        9.74994190141593
C           11.08360625305091        6.14328007351769       12.20933002511239
C           12.55202382593389        6.37272453158749       12.55249132620727
C           12.83568358425672        7.72410414965412       13.15488618971150
C           12.13399818638115        8.15754286779276       14.27838641034597
C           12.45312170941612        9.37838184476015       14.86889043809327
C           13.46393270365673       10.18115866960712       14.34353720424731
C           14.15026691609303        9.75275621167994       13.21962376281287
C           13.84094759210515        8.53533669011554       12.62650783962878
C           12.31323048861392       12.28763786092727       11.04920773853054
C           11.91695640695746       12.11661980327201        9.58731888762311
C           12.83084826696247       12.92087810002572        8.70152673787079
C           12.64229861793198       14.29260845017541        8.57627767783241
C           13.48560469577916       15.04283698804857        7.76034137376813
C           14.52597361494463       14.42618889753733        7.06176908278135
C           14.71821901806164       13.06134737941133        7.20703403791833
C           13.88461029284229       12.31213920668786        8.02647889693111
C            7.78472390901562        6.12801676999604       14.31711071377200
C            8.17423039382992        5.29325054468264       15.53744336087133
C            9.62076069625155        4.87978690646627       15.47021093365817
C           10.57732874119801        5.53375382587412       16.23676365933786
C           11.91882554883084        5.15827418184750       16.14173845441958
N           12.92193367873883        5.79413052044845       16.88614690789901
N           12.65457568653161        6.70387192308685       17.63673015166161
N           12.61390698990207        7.55756367191358       18.36700727770476
C           12.30732745894839        4.13119419285549       15.28179342319423
C           11.34716856222482        3.48665751154612       14.51656794571843
C           10.01281210113237        3.85880473369011       14.60385806096336
C            6.85417058162954       11.64055528174409       17.78637466063438
C            7.75769972994997       10.82117244616994       18.69992919368201
C            8.96512603872995       11.59811414923954       19.17018219319645
C            8.93432472834071       12.98051407684591       19.31510031731535
C           10.08464600359900       13.67081659264523       19.69931131534198
N            9.99567303811589       15.06866038056099       19.77638756914568
N           10.96530427585344       15.72944936832337       20.07292019037416
N           11.73967141761849       16.50549817881729       20.31926773423352
C           11.27005907168576       12.98527093479355       19.96592825139812
C           11.28724842838442       11.60505892293360       19.84107563050672
C           10.15069432390152       10.91579479223097       19.44388847553414
C            2.06259679401474       14.06928812440105       14.74516840804756
C            1.27848639836443       12.85087031026673       14.26946213166096
C           -0.20295840055018       13.07591236097384       14.42723154741074
C           -0.93847378254386       12.32951531498014       15.33670288757328
C           -2.30906175389431       12.54863667170694       15.47781379053171
C           -2.95133113914381       13.52633274569621       14.71783557538865
C           -2.20850835776043       14.27070285018193       13.81411303413025
C           -0.84781290660065       14.04941027232007       13.66412986470739
Au           5.02222775670610       12.61046176392278        6.34742011898226
Au           4.28396898268499       12.84573382594352        9.65171668289084
Au           8.03179538434575        9.48857118557837        9.39717997756403
Au           7.37929382661408        9.46428431349860        6.46708527701277
Au           7.15284129670942       12.23400371244237        8.68478798950356
Au           7.07447951164370       11.43365900277178       13.67358200893229
Au           8.69464122647221       14.71056745284608        9.14462399234826
Au           9.23450613091753       14.03471782142697       12.91470851103999
Au           6.73625773536890       13.70799415645441       11.29807134076611
Au           3.84501010839997       15.20497002190505       11.47609328080058
Au           1.38450459210114       12.38768540764639       10.43851489947217
Au           3.34858268935422       10.09216850281851       10.74262303630771
S            7.50694562296492       14.26821924590995        7.14136106450320
S           10.08873462252010       15.15350045329314       11.00667954469484
S            8.44468848721664       13.11618398598858       14.93277566209660
S            6.03816610094949       16.10022716153466       11.52918259574163
S            1.55336494658547       14.63139441441994       11.15815753890584
S            1.00823433534008       10.17141619681716        9.69849498659752
S            3.52302007333928       14.00265957643680        7.54569862480743
S            6.40871702901272       11.14376924123675        5.08181378091062
S            8.35702401943019        7.65690135249413        7.64042107687184
N           10.32974894806499        9.32901987921009        3.32905945896412
N            9.28724299458561        8.89519002013865        3.75152998105427
N            8.34121463366044        8.35147296910861        4.03178077304526
N            5.90366058285479       18.32379164710417        8.10627659128624
N            5.39699295809838       18.66548147240463        9.14869907922849
N            4.74678855718665       19.00626828265285       10.00044847433484
N           13.22330308320623       15.11236645057332       12.51289203212830
N           13.38068946659920       16.05199939049111       11.76730976860571
N           13.60118021596854       16.79103665756614       10.94959003120500
N            0.38146604918696       11.88378780708218        5.90153114185085
N            1.28088238049319       12.52105982392708        5.41030952251300
N            2.13491680189518       12.95129414330586        4.81605190628824
N           -1.07710166429861        5.30548359511005       14.24155016670379
N           -1.79844441361098        4.59467178647864       14.90571984993020
N           -2.34148778270074        3.78556188172569       15.46393205163047
N           15.15119334279430        9.98552667836564        5.51261942225249
N           16.33879131081011        9.83525724140935        5.33023776894349
N           17.41982945845399        9.85166286473695        5.02549219806883
C            8.74002348105235       13.78551854068952        5.91674456293735
C            9.95132395704815       13.06718370776300        6.50618261138376
C           10.72505985545021       12.35677910086058        5.42718713475680
C           10.18307250996053       11.20000658045159        4.88014359675232
C           10.85939770037955       10.51024230080260        3.87794583276860
C           12.08761755382510       10.97565139222720        3.41137010382311
C           12.62091106871816       12.13358638977498        3.95634754364565
C           11.94642981655130       12.82711283090758        4.95433655213230
C            9.83049198608317       16.89651248262945       11.39887978474224
C           10.32812387440097       17.79095612300687       10.26725152955808
C            9.44099333182889       17.75199507987950        9.05002532711584
C            9.97317540047329       17.45951694361419        7.79412348972703
C            9.15991139237911       17.45726204295104        6.66809509682681
C            7.80844366084711       17.73828971315300        6.77691405294448
C            7.27406842843879       18.03275992176970        8.03018932037375
C            8.08211018151792       18.03806076268128        9.16523053172958
C            9.88156202333991       12.14011923423216       15.43001172531244
C           10.86236200994783       12.97774597946067       16.25098737147074
C           11.32710574176021       14.21547983714816       15.53342247089148
C           12.10074321870776       14.11829059592442       14.38012189322481
C           12.48181415648623       15.27119725515043       13.69567497863813
C           12.11595581180549       16.53160996791796       14.17009375523551
C           11.35432748612410       16.62041984536592       15.32482649757810
C           10.95378899531655       15.47491301431232       15.99860455190040
C            6.25433765911549       16.54344243835545       13.26782691383385
C            5.61469746302480       17.91169423441821       13.54283412478408
C            4.14598155761320       17.77961836720112       13.84594149376114
C            3.19073424087089       17.93236938827778       12.84578206291747
C            1.83899494293968       17.74493843255019       13.13771346392300
C            1.42773506059539       17.43831867245243       14.43423492624986
C            2.38540983302911       17.30802072421600       15.43017662401139
C            3.73325531933938       17.45838925888420       15.13880718464817
N            0.92245799372594       17.86532105539556       12.08057860281067
N           -0.22516662254035       17.51519565503212       12.22830836525887
N           -1.30746532541536       17.21672010033036       12.15994433655274
C            1.07393813177535       15.58173227836820        9.70058470982147
C           -0.39448541450387       15.35231252308156        9.35742005807525
C           -0.67816674489255       14.00093471224268        8.75502889210169
C            0.02350164782013       13.56749196184565        7.63152014890040
C           -0.29562306955478       12.34664703068208        7.04102918046612
C           -1.30642227240211       11.54386916556413        7.56640268102568
C           -1.99274263321794       11.97227764198708        8.69032223917977
C           -1.68341502083693       13.18969952612321        9.28342950732670
C           -0.15568615627970        9.43739240742121       10.86068770143279
C            0.24053599717810        9.60841591009123       12.32259048838752
C           -0.67334801810339        8.80414041343370       13.20837918758227
C           -0.48476423988703        7.43241567926908       13.33365160602173
C           -1.32807440888369        6.68217318363963       14.14957223921686
C           -2.36847526989481        7.29880222976800       14.84811214741616
C           -2.56073839758298        8.66364105952959       14.70284456329651
C           -1.72712910013236        9.41286207786760       13.88341185779215
C            4.37281780956966       15.59702269386383        7.59279877738646
C            3.98331640523810       16.43174104477220        6.37244302670129
C            2.53678984184809       16.84521021903959        6.43969250536749
C            1.58020245670401       16.19124331906804        5.67316446413724
C            0.23871598863947       16.56676120463412        5.76818597553487
N           -0.76441472810462       15.93089867701164        5.02381335025386
N           -0.49708781080233       15.02108494590119        4.27330567830539
N           -0.45641210992111       14.16752817260097        3.54287396861530
C           -0.14975752987917       17.59386149674937        6.62812000554753
C            0.81041898325298       18.23838187480089        7.39333715877726
C            2.14476682520922       17.86620830458378        7.30603823970683
C            5.30339713822278       10.08446185027868        4.12356344948719
C            4.39982795897855       10.90381663286146        3.21002157103530
C            3.19240379128231       10.12686710091105        2.73976521827196
C            3.22321240788162        8.74446798815653        2.59483595217339
C            2.07290003923752        8.05416187286401        2.21060191352318
N            2.16188610523245        6.65632166935630        2.13349662255026
N            1.19228205273882        5.99552816086950        1.83688851458249
N            0.41788416313107        5.21946163775238        1.59069002805486
C            0.88748794944632        8.73970287735737        1.94397020130463
C            0.87028858476804       10.11991323385763        2.06883867085659
C            2.00683477910102       10.80918108259760        2.46604377787147
C           10.09500682491479        7.65566213094532        7.16470867913650
C           10.87906148240454        8.87411128335316        7.64041396954344
C           12.36049957385183        8.64908265989493        7.48265755778250
C           13.09599890276276        9.39547106974254        6.57317071191253
C           14.46658464885753        9.17635179452422        6.43205405879957
C           15.10886245194773        8.19866825431360        7.19204137806347
C           14.36605047754416        7.45430843743076        8.09578181349781
C           13.00535631236395        7.67559529851749        8.24576761288291
H           -2.69452667722237       15.03360832479864       13.21604904897479
H           -4.01537221610115       13.69439398825133       14.83217303301229
H           -0.28465137104755       14.63024363454312       12.94146224034931
H           13.57822986257030       12.49918372595556        3.60288222398239
H            9.06135483724490       14.69047975159164        5.39846654283588
H            8.23468459179752       13.13599804350145        5.20020471062092
H           12.61231973903951       10.42971431558901        2.63747805162030
H           12.37751506480756       13.73047417595632        5.36980260965755
H            9.60254934210856       12.32941464066014        7.23588363990731
H           10.58532254751493       13.78512640072711        7.03263469811513
H            9.22629953619722       10.83457268942771        5.23275738888000
H            7.64244658249667       18.26803975646613       10.12918081609885
H           10.37944092040262       11.72183166045646       14.55556356919807
H            9.51750924487938       11.31910705355930       16.04581928975529
H            9.58678289143107       17.23196896878790        5.69731314601197
H            7.16494743786676       17.73641686929552        5.90590237286806
H           11.71874381218368       12.33809078841526       16.49130799086601
H           10.37857562486067       13.26431788329752       17.18680514437597
H           11.02992386624154       17.23919799329914        7.69749145676413
H           11.34725355112088       17.49743760025639        9.99886881033266
H           10.36484118551703       18.81967452110732       10.64370932562921
H           10.40495774760980       17.09932870390135       12.30293885989669
H            8.77747560629794       17.08424381941877       11.61016232962352
H           11.06502176284706       17.59558850280788       15.70006498658817
H            7.32794365824312       16.59820036687073       13.45205280399385
H            5.82756688491084       15.78351631250548       13.92294391188363
H           12.43634900601938       17.42482445367862       13.64746941853635
H            5.77226648046290       18.55948230626855       12.67650932203582
H            6.12373054106820       18.35962649159508       14.40213174913054
H            3.48022865476124       18.22324498292090       11.84453195308959
H           10.34909797725517       15.55999579564026       16.89470498664317
H           12.40654353689852       13.14995881062770       14.00297177070990
H            2.07454725293667       17.07534584813298       16.44245341063706
H            1.71461717593963       15.32442874835215        8.85651608265532
H            1.23080697794265       16.63238993722210        9.94504859330515
H           -0.68877632737456       16.12059298060954        8.63266754172290
H           -1.00189268235319       15.49523398518555       10.25549836324669
H            4.47003171499910       17.33430068034269       15.92426452412708
H            0.81470521857219       14.17359271028947        7.20571005297153
H           -1.54312825435022       10.59931226992336        7.09255405241479
H            0.37519601709361       17.31326164597694       14.65789012860703
H           -1.89214225249076       10.47768167862771       13.77418431808202
H            5.45313482699674       15.45504391300705        7.60823610659415
H            4.07947718736071       16.11138743137927        8.50869185152906
H           -3.36542523444368        9.15388905369644       15.23938572763838
H           -3.01664500694684        6.71334000292523       15.48884294455612
H           -2.23440371024962       13.51841605000784       10.15710298588030
H           -0.20920190835599        8.37527901320794       10.61807126678412
H           -1.13545188007309        9.88343821742797       10.68446537155728
H           -2.77897527006887       11.35420435634259        9.10874780953175
H            0.20236806466236       10.66782439388350       12.59066611943407
H            1.27339892649498        9.26871173831521       12.44934550759382
H            0.30937213223292        6.93370031311762       12.79086879237690
H            4.17664474993818       15.85448963361199        5.46496074813016
H            4.61778280105938       17.32352405710635        6.35581401101422
H            2.88650527379928       18.37781620112356        7.90846308222214
H            1.87155100347619       15.39333237225812        4.99981181663277
H            0.51626105702848       19.03803146088248        8.06364105853293
H            4.70534849509767        9.47487972852167        4.80429909949601
H            5.94522393022664        9.42089425367833        3.54376079289377
H           -1.19246276901897       17.88155497259557        6.68139818797851
H            4.97407581084293       11.25896014178810        2.34770677392285
H            4.05272471305572       11.78926194814940        3.75065612299506
H           -0.00259237229394        8.19720870213686        1.64932696435551
H            1.97048099623045       11.88710477835426        2.57278517837921
H           10.65335832324261        9.04218229894514        8.69753804006121
H           10.55922016344399        9.76184466130119        7.08833280096281
H            4.12586100849528        8.17673003451599        2.78388473713067
H           10.16072048967421        7.56652177511412        6.08021348705056
H           10.51888692982586        6.75634077284409        7.61145369214979
H           -0.04451894224398       10.66472254604755        1.86451118410621
H           12.62145932260306       10.15979997247324        5.97177404351661
H           16.17290128419837        8.03060446911799        7.07769299725191
H           12.44219595683765        7.09475816316374        8.96843228066513
H           14.85207534694662        6.69141700747048        8.69385768114156
H            2.93123768228735       10.89040672118456       16.67714109535534
H           -0.22000022213784        7.99452854573754       16.54006530701616
H            3.92281301352398        8.58898313293349       16.70964492212321
H            3.09619236523627        7.03450189175655       16.51135128369166
H            3.38005279381380        4.64065868122136       10.29968172797372
H            1.75256263840251        4.62562460236287        9.60694920864741
H           -1.42072380525158        9.22583675058112       18.30696502078959
H            1.57223685319359        7.93985044798055       14.87717293695125
H            2.55498037611658        9.39558164082384       14.67396984043979
H           -0.45481347196341       11.29530162008118       19.27237274941078
H            4.99258717951891        3.98856199335566       16.00400507987628
H            2.64000836176459       10.40592746936006        5.86409586148286
H            1.77812897794670       10.00314512527684        7.35436078102011
H            1.79266024247548        2.90532617276104       11.26624530696361
H            0.81029021404990        4.22761029171401       11.91103715224481
H            2.57075401382919        4.49302374544191       16.21259237019822
H           -0.24897378194597        8.57505038557301        7.90695195844341
H            1.77896298946019        8.46069217677358        4.72310479613878
H            0.43880546148033        9.38690814205287        5.41862821203020
H            4.51509039601035        3.45697810828064       11.78072167244344
H           -0.27884112224085        4.30018236873579        8.26242240682075
H            1.12762185572288        4.48584304871925       14.21241000850238
H            6.32997562207556        5.94149757859511        7.98698571500530
H            4.82960472663561        5.12681451219241        8.45786981412873
H            8.67729870909909        3.50179675785138       10.06538850582791
H           10.08296387187851        4.64963819593222        5.46744778724376
H            1.80843732938310        6.16500600355561        5.01520080193975
H           11.78232279930673        4.41173013044032        7.25200512132012
H            1.09249560502730        4.12941360685079        6.20983241111514
H            7.68748168941877        4.39068369948955        5.98564842765243
H            6.03379271544479        3.36538471078235        7.50778071249106
H            6.38525228880114        3.16551861439908        9.23340306346260
H           11.34278132040248        7.55144618114612       14.70417894330493
H           14.93650648931990       10.37082980421973       12.80121220977885
H           13.15943423067542        6.22981303567941       11.65441328078003
H           12.84631922069190        5.60444956332939       13.27724657404260
H           11.84818431859674       14.79133649903781        9.11908185824392
H           13.29299267493219       11.84157457106022       11.22539649036683
H           12.36675484222881       13.34974517611155       11.29185177204993
H           13.70064597978322       11.12570488986469       14.81740346418746
H           14.39193659554275        8.20662948749163       11.75283148417535
H           10.92675154839715        5.09262494669307       11.96484843640499
H           10.44291278300231        6.40056766915190       13.05339136448037
H           10.88409393046353       12.45633308183423        9.46058891859231
H           11.95511598939722       11.05721660217779        9.31922042628072
H           13.35003748247276        3.84351466289208       15.22852882076211
H           11.64134885075627        2.68701876695768       13.84626052885503
H            6.21230359566708       12.30410134959103       18.36615676307670
H            7.45226023562415       12.25015263887823       17.10569557839462
H           10.28595850826516        6.33164990723025       16.91012420441158
H            8.10480851233832        9.93572798415361       18.15929989643066
H            7.18343598419643       10.46603124078591       19.56223323620373
H           14.04961052184078       11.24731678054986        8.13570250130563
H           15.17414371955138       15.01164166420397        6.42103001383089
H           15.52288696012917       12.57108647786532        6.67047556157204
H            8.07805221155519        5.61362278535174       13.40122958867381
H            6.70440059075449        6.26996925618868       14.30168088176135
H            9.27108996810894        3.34718807022635       14.00142044694938
H            7.53977983647943        4.40145321033616       15.55406629720141
H            7.98089422817230        5.87047599543492       16.44493898251138
H           12.16014634327745       13.52776249769459       20.26055465742894
H           12.20205292158174       11.06024483590371       20.04540317531204
H           10.18704183563580        9.83787087749970       19.33714594697330
H            1.59831987509395       11.96312828455062       14.82153347351677
H            1.50416950292851       12.68280799266083       13.21233198590024
H           -0.46394287743093       11.56517749460417       15.93809423015414
H            8.03167914449655       13.54825537221097       19.12604562549024
H            1.63867741374389       14.96861339845277       14.29846965482350
H            1.99689702359636       14.15841759589726       15.82966846116194
