508
 energy: -749.933211672265 gnorm: 0.000352002992 xtb: 6.5.1 (579679a)
Au          10.99165456920303       13.11532219230610        9.48711582898461
Au          11.06533846731551       16.10979842890170        8.02372685810375
Au          13.43461012545541       14.54776895118149        7.32452966343484
Au           9.20464930462398       11.21386403434113        8.67020271561831
Au          10.63330700024303       14.45637059636627       11.89941701974737
Au          10.70034109100176       17.43623583935026       10.38385400983145
Au           9.10902414231623       18.04680841809122        8.00080373878782
Au          12.83996306198106       15.04806962892181       10.25843024891250
Au          11.40107960070052       15.07643836570537        5.51573913391536
Au           9.26278207088482       13.71260514135843        7.37137935773236
Au          12.77252443931323       12.53270405613084       11.50123827951685
Au           8.64647300299920       15.72541932304510        9.58990871690307
Au          13.06889249048058       17.24718576494162        6.51797636820192
Au          11.14297001262837       19.53816424711485        6.34667631505895
Au          11.44277809639308       11.98791859166678        6.98106397075718
Au           7.93502991450104       17.02476135251380       12.36458926462881
Au          13.16102216903767       18.62582011182914        9.28423974849943
Au          10.28321384553851       11.83024307306871        4.01136430891184
Au          14.20767618299567       13.11022522157380        4.68773403872001
Au           9.15262915464500       16.89376373597131        5.12571226079216
Au          10.99331456467943       10.13586370594740       10.93807340331164
Au          15.15377312361504       16.91358248580414        4.63054334819774
Au          13.85386159076596       11.26454973944853        8.90190900879497
Au           7.04497933606498       19.39845604640666        9.39159691351154
Au           8.21479283710916       12.50609538767088       11.31581586374350
Au          11.79884164666798       16.61427448542550       13.86310792804541
Au           8.19727197951829        9.68587604927625        6.43761992850512
Au          13.79748553148697       13.35258244151144       14.07652642500190
S            6.59077856290903       18.82578172358422       11.62706588421812
S           12.90154176875459       11.18801308567686        5.17468911388152
S           12.68804205356137        9.32792308278253        9.55780691216495
S           14.48316150539944       16.85660626278865       10.06518360456718
S            7.83988844491462       15.14604778882739        5.96172217911107
S           11.58148982954400       13.73064943967862        3.46425008820114
S           10.57763001564597       18.27139764460598       12.69427096552269
S            6.89217946370629       14.24281993178072       10.45987860226163
S           14.50960130270703       19.02230685785448        5.42289284908876
S           15.18051060741612       12.94050475076633        7.94719158789442
S            9.33276786547232       10.77081945433876       12.44441605775412
S           10.51088848290264       18.61265689084180        4.26694050171870
S           13.07503277693159       15.23646279941211       15.30245459773798
S           15.60678393142545       14.77563663043950        3.75278247997529
S            7.66852850722062       19.97807480458749        7.21268794675051
S            9.15397492123007       15.41975924783357       13.61743917478764
S           11.78221944623996       20.35479764975160        8.47228269226837
S            7.53207165981943        9.36827078229829        8.67170105954570
S            8.97146099635287        9.87133610958623        4.21628231871978
S           14.40051616477561       11.35659206594031       12.98619350468272
C            7.33706084013367       20.08663962765550       12.58159810246141
C            7.84347723663807       21.25031486306669       12.01994585713251
C            8.38964291025374       22.24435267771461       12.81755945867394
C            8.44919090747227       22.10639996388838       14.20197056568421
C            7.93983882532762       20.93002577129987       14.75770076947596
C            7.39161954521799       19.93789181935465       13.96537798726752
C           11.80787376300651       14.60760145360574       16.33016386041237
C           10.89923475069643       15.49114170777889       16.90567153570640
C            9.90808124504613       15.02777106391384       17.75142237863591
C            9.78237496412455       13.66884871466374       18.05029032323813
C           10.70754900419384       12.79516238482094       17.48352278464808
C           11.70659414232203       13.25769834373602       16.63943633307258
C           13.38965843115121       10.27899836444446       13.92997932664526
C           12.07100154959516       10.56387328594188       14.26233922123225
C           11.31363944364505        9.67581907440405       15.00986952915903
C           11.85033507306428        8.47102791854573       15.45392541144155
C           13.18191921749026        8.20118661030611       15.12951836164071
C           13.94205403423262        9.08404643627512       14.38106334834787
C           13.89743617132736        9.89627918074036        5.80724743779061
C           13.29706665398892        8.80298150730177        6.42192176564693
C           14.06700261118967        7.77465234964064        6.94350115170031
C           15.45853909262103        7.80095451108271        6.86588545473958
C           16.04636162068581        8.88536436443357        6.20909846950376
C           15.28322497583324        9.91835627091328        5.69198559992363
C            8.09573566860108       14.16812392819739       14.22949346401230
C            6.71416387523505       14.32727834048554       14.24746850279899
C            5.89821002209751       13.32130748629602       14.73563491994284
C            6.42712004569172       12.11919472861669       15.21290488618964
C            7.81462174028180       11.98536246052695       15.21831198572768
C            8.63789936613263       12.99262678541191       14.73791328635701
C           10.21013142653313        8.64424417913768        4.09421879558818
C           10.28026389234414        7.56800061440878        4.96894757360297
C           11.26136530675130        6.59765278693251        4.82364325337409
C           12.19960500164050        6.67035628940776        3.79661009153296
C           12.10596047109841        7.74530185229487        2.90917513731581
C           11.13238918641984        8.71631676438242        3.05403440621934
C           14.92751296526825       14.80240599918564        2.14216869224597
C           14.79229099751975       13.60467865842703        1.44451347974026
C           14.29021907118206       13.59368686724938        0.15617000301783
C           13.91372786274322       14.77506870125916       -0.48772349250482
C           14.05524755931180       15.96725639950748        0.21759787717973
C           14.55326041306514       15.98090767745160        1.51159272855711
C           15.62050198868181       19.44389212090857        6.70603262740967
C           16.10986694049154       18.52611349152112        7.62966708157944
C           16.93647607299766       18.93790091742569        8.65998775555445
C           17.31777069325213       20.27345626712151        8.79819256681506
C           16.84771446143522       21.17854345275821        7.84879791099632
C           16.00476620745980       20.77537567769042        6.82314124586218
C           12.83226956969438       21.72529729673746        8.21214416343387
C           13.82526984852580       22.02898761660171        9.13479028885665
C           14.60259994055697       23.16687766128481        8.98135285246322
C           14.41391253007456       24.03310503032929        7.90656214955432
C           13.42024399009396       23.70781170511128        6.98015686996352
C           12.63842483545695       22.57566725459962        7.12947823881815
C            9.37700985214857       19.69342595861717        3.49296836442322
C            9.41656502667596       21.06681202782244        3.70034468887729
C            8.55247403099076       21.90193316393542        3.01202868178899
C            7.62969652921197       21.39732463241970        2.09227426300729
C            7.60457382141171       20.01849980418290        1.89248604683482
C            8.46147922193849       19.17681440887556        2.58378955237970
C           11.41257687625821       19.80098784099613       12.83240794460256
C           12.23117411282320       20.06861575342531       13.92337471354276
C           12.91304922598495       21.27083566182052       14.01243547444408
C           12.79034816844809       22.25291001066508       13.02619789388120
C           11.92833753088622       21.99116338115859       11.96181931424833
C           11.24914832759623       20.78535179792798       11.86457823068957
C           10.83787741816682       14.64944369819228        2.17627167148775
C           11.15158309120087       15.99505802254238        2.01710459229793
C           10.56585980681705       16.74558938351126        1.00864580882937
C            9.65261838887834       16.17537061785636        0.12279447823980
C            9.37340188724143       14.81501029487119        0.27372121166349
C            9.95338887568546       14.06132171611536        1.28049268077560
C           16.22273995550115       13.60402375582962        9.18078351474589
C           16.94341163462251       14.76230993224259        8.90115533686673
C           17.86034131666028       15.25299261085627        9.81430086733849
C           18.07802995764197       14.62314946212020       11.04263056402398
C           17.33425940445575       13.47680001563829       11.31831546864028
C           16.42597000270633       12.97132749842360       10.40019070467110
C           14.87078729374008       17.15679299535581       11.73623462804385
C           15.32512325217666       16.09450625282936       12.51047651039398
C           15.69733374030468       16.29057492307474       13.83026921782886
C           15.61898446479805       17.54945651862049       14.42304273131817
C           15.18047698329964       18.61049239949097       13.62901651435244
C           14.80672776309246       18.42162162190917       12.30875879723048
C            5.97632867359897       13.45516325296352        9.19694118114513
C            5.55294304959814       14.15266693311303        8.07273692736829
C            4.78722357053381       13.52483243721640        7.10062159535502
C            4.41735827151690       12.18673594683108        7.21966407771940
C            4.83409632841323       11.50167546363265        8.36305724132460
C            5.59506891408676       12.12393573487276        9.33473255085168
C            8.49417540862963        7.94302726044126        9.00836366943217
C            7.88384946530514        6.89328292074220        9.68735239976216
C            8.59461570626195        5.74377294979283        9.98757491830794
C            9.93362023781176        5.59467249779660        9.61750971897172
C           10.53020976531374        6.64642639884524        8.92749240064011
C            9.82322500942991        7.80103305516560        8.62863914802728
C           13.69304645979020        8.42456185518021       10.66446948038382
C           13.12970589171750        7.35838220461776       11.36178617138665
C           13.92881690121819        6.51148359102097       12.10932144450302
C           15.31091156628068        6.70335317280308       12.19612244854682
C           15.84718096889270        7.82166765772132       11.56066802826962
C           15.05171377331703        8.66905879429119       10.80252658040214
C            6.52624763547123       19.18497063474586        6.15059164493249
C            6.12910705364985       19.86524951463530        5.00276682000410
C            5.27002938963127       19.26698589164700        4.09647834542699
C            4.78784849461723       17.97076197183612        4.29322061910796
C            5.16946653545500       17.31370620474177        5.45971251379494
C            6.02068549526285       17.91095548847896        6.37579087677458
C            7.36646631419029       14.18539185849165        4.59092675683225
C            7.15058081908111       14.75356559088243        3.33884890190841
C            6.69867437176055       13.97821530256750        2.28409114466547
C            6.45515779591998       12.61128697349375        2.43728778345913
C            6.67411415592174       12.05678934112429        3.69537808461590
C            7.12066666889981       12.82823713243522        4.75652069511144
C           13.38082017543438       14.71304583861889       -1.91256676710565
C           13.02785551275661       16.10127919082359       -2.46404522580794
C           12.11561391065925       13.83749743804967       -1.93859068380984
C            9.01833127988948       23.18187501046592       15.11731794500120
C           10.14883740547518       22.58156072416817       15.97119354987804
C            7.89394254312037       23.69322549399607       16.03637498672136
C            9.58263986250293       24.37521734054307       14.33405234497608
C            5.93793492449265       11.78595015682407        1.26745234928201
C            4.53704755479741       12.30175982479927        0.89175880647633
C            5.83924381447279       10.29188524078840        1.60876063920799
C            6.88295156870459       11.93842295909546        0.06357322390870
C            8.68144115148609       13.20846426726389       18.99615681959284
C            9.02538816617572       13.70131949993034       20.41354377510672
C            8.53964147239044       11.67983180032162       19.02901723793898
C            7.33429024956956       13.80773797457785       18.55573567852825
C            5.48615038757754       11.02178074672634       15.69594835536375
C            4.40068873130839       10.77304068760245       14.63233964095279
C            4.81320174045516       11.47176688657800       17.00438166651136
C            6.21897824547664        9.69752877224856       15.95393663651038
C           12.95604557902393        4.83163333307592        2.31000375705578
C           14.64956285415871        6.31559398860595        3.42904366297216
C           16.34220278114633        6.71407748000068        7.46654549949313
C           17.00412938854554        5.91341253063375        6.33178361999698
C           15.98248818489882       17.79659334014456       15.87987006164551
C           17.17160606879257       18.77175548847197       15.93505447778679
C           16.36773045427590       16.50412888693487       16.61270785695122
C           14.76946547257582       18.40737078367455       16.60405234577528
C           13.28487457199814        5.62257818113057        3.58924056480173
C           19.13697380366879       15.16647847912978       11.99392014971884
C            3.55546335927627       11.46465377780182        6.19265371764211
C           18.90501538462499       16.66502281594088       12.25052071410733
C           20.51496247242177       14.96928205057495       11.33520181576032
H           15.08559703009422       12.67448180719733        1.91624221727306
H           14.19546593181463       12.64005748823215       -0.35099923652226
H           13.77545109038426       16.91523945431436       -0.22456323792085
H           14.65114146800110       16.92552272071098        2.03454320628553
H           15.76802648437251       10.75584192470696        5.20455673451516
H           15.83871166628538       17.48074733228042        7.54770084488489
H           17.27497067677113       18.19246639942398        9.37002891387243
H           15.63487664495944       21.50233216483637        6.10953509401514
H           13.99580015817715       21.37148911473975        9.97920635936712
H           10.97234707519497       16.55037817847494       16.68930791109465
C           18.21803641297857       20.67002249521090        9.96122580656495
H           17.12206817299575       22.22505434278868        7.89549366131542
H           12.80287523047548        7.83667168698749        2.08403536219966
H           12.21814876362564        8.76456039226492        6.51353715198181
H            8.28592889817877       11.08066183690802       15.58086938606548
H            9.56157549592364        7.48171757305184        5.77595374680007
H           15.37069312489602       23.35767157703098        9.71914776529489
H            6.99626994627045       19.03873744024356       14.42265133238703
H           10.66967818822928       11.73170629316785       17.68587909714913
H           11.27578413545617        5.78327902100645        5.53770203865092
H           17.12360172585834        8.94155850913458        6.10279149044542
H            8.77203001897571       23.13073971022871       12.32713297458917
H            6.27434461400348       15.24138455751983       13.86678770760168
H            7.81210261825013       21.38671839409300       10.94482714359797
H            7.96347607255535       20.77722006352390       15.83085811940776
H           10.29049001861768        9.95108876852054       15.23152474172604
H           14.97259064803554        8.84912804910233       14.14290855923298
H            9.71254261683221       12.85449882935166       14.74145607794109
H           11.08431000936021        9.54106088447851        2.35287420688157
H           12.41593120391393       12.55413687559416       16.21914477367212
H           13.64562339473871        7.28268593869102       15.46925922338508
H           13.55090061173656        6.95875705040254        7.43346533251707
H            4.82646339215477       13.48320737694017       14.72999834784756
H            9.22334819489906       15.74906650350119       18.18235090733210
H           11.62001363667497       11.49011269200678       13.93047520426631
H           16.04510604509164       15.43165319132993       14.38854835707512
H           14.45629841500301       19.26240577662808       11.72146513640271
C            6.70129119144508       22.35396448047081        1.35625208399238
H            6.84554854929777        6.98534267677620        9.98158224051248
H           12.35075163902970       19.32250552855366       14.69947859572816
C            3.87064843060794       17.33797892864191        3.25442079415706
H            4.81913470353101       16.31311825974531        5.67693731281937
C           14.45620342008016       14.09336290358253       -2.82348836105117
H            8.60765346758300       22.96778842488327        3.20252068055002
H            7.26381972177401       12.37167474195507        5.72837156899009
H           11.56300642368672        6.59358688428272        8.60720968075825
H            4.48674876733996       14.10812064945551        6.23931424172596
H           13.91054024080637       16.73975215059675       -2.50824700778800
H           12.62919736017933       16.00244564359378       -3.47441879945486
H           12.27331484325548       16.58570196137802       -1.84416020604669
H            6.90797094540950       19.57097259819880        1.19575138719302
H            6.53780768900197       14.45904958100955        1.32612938576982
H            4.98199746829654       19.82865098156028        3.21505943213803
H           11.85093204900236       16.46836719962273        2.69657510714347
H            9.70502578403453       13.01136072566420        1.38040215323127
H           11.86898765949643       22.34994059324234        6.40023831729994
H           18.42078136020240       16.14254249939225        9.55068629078787
H           15.88185291663842       12.06514638083315       10.63815596039867
H            6.50362073447089       20.86541964945447        4.81979057207417
H            6.30401970026869       17.37011250640337        7.27049551518868
H           10.59994668559263       20.60487768716604       11.01568907452462
H           10.83455521867290       17.79220660045105        0.93809876773788
C            8.91803337427497       16.97343867128937       -0.94774963235596
H           15.39641645094583       15.10609098117669       12.07413448893071
C           10.67337909420908        4.31083250530513        9.97035168997563
H            8.41678985240582       18.10695060812439        2.41796494072194
H           13.56287755649561       21.42918944823301       14.86542675577563
H            8.08492792032372        4.94942818094125       10.52137174181178
H           13.45865036706967        5.68040917673187       12.62268273700812
H            4.56812069260338       10.46152213514852        8.51142807284239
H           15.49770307878532        9.52167677403374       10.30504279098735
C           16.16821659480707        5.67548616456659       12.92315354013472
H            7.33801204435529       15.81065341657377        3.19008196419223
H           13.24327969997271       24.34477977043416        6.12091727436898
H           16.79267742728737       15.27167662365653        7.95650975181245
H           17.45499498059342       12.94225931554444       12.25223505861633
H           10.31932706992316        8.59929159167717        8.09149354476733
H           15.12236375961014       19.61188717972305       14.03858381299416
H           16.90300862645889        8.04963518583432       11.63138273911794
H            6.51209696219270       11.00301082097593        3.87246650901340
H           10.12582997933100       21.48437148353959        4.40562258747047
H            5.83050143479856       15.19217795867147        7.94955779051234
H            5.89208162918840       11.56652526472256       10.21425627727809
H           12.06193702470808        7.18483497048595       11.30166097239433
H           11.77840904916581       22.71945430444760       11.17464597505866
H            8.67799329314559       14.32607369673637       -0.39797933446296
H           10.92608970178280       22.17162412822348       15.32661127245741
H           10.59039734251165       23.35188721584066       16.60431685772810
H            9.77622167243517       21.78301826947057       16.61204254378176
H            7.69982068660606       11.40383548569204       19.66784369025152
H            8.35112932152457       11.28896645468518       18.02895065484238
H            9.43699031483796       11.20765371670790       19.42927915304429
H            7.33203253005644       14.89304293015641       18.64939863293775
H            7.13318810013608       13.54995238522138       17.51622642018764
H            6.53001077408705       13.41390670566856       19.17779538977042
H            4.30773507095727       12.42773588188953       16.86961890765934
H            4.07903909492969       10.73068577684320       17.32231093680478
H            5.55836010477722       11.58015807844490       17.79201680312700
H           20.68915452079430       13.91082628360383       11.14026185585310
H           20.57019971390245       15.50934867629481       10.39017468380939
H           21.30235498860641       15.33868529387956       11.99284332841326
H            4.85969125989642       10.59620037392766       13.66051239262657
H            3.80672409343001        9.89896552847500       14.90138168114561
H            3.72927105375056       11.62659412700540       14.54638160136776
H           16.91404494767902       19.72490293694927       15.47340916133715
H           17.45956808589630       18.95548846751228       16.97047911126724
H           18.02523881947335       18.34931506019846       15.40386891345006
H           11.36435218962396       14.24685358794723       -1.26343684191397
H           11.70017848229261       13.80577791861322       -2.94635284214499
H           12.33934907734307       12.81782910406650       -1.62602484749659
H            5.49822629868857        8.93080473317642       16.24087552644281
H            6.73754325593354        9.36129587297908       15.05650387137279
H            6.94112238931211        9.79828505814782       16.76404219182798
H            7.89585940604639       11.64781059914890        0.34331472010455
H            6.55142423930335       11.30009430092038       -0.75586952364165
H            6.89903258958995       12.96748267648813       -0.29323020638524
H           17.24661313803832       16.04229431865773       16.16221490836793
H           16.59939633421979       16.73124691079142       17.65391444107078
H           15.53993547153034       15.79389132216633       16.59373005566890
H           14.84623645434541        6.95636671537970        4.28814420165467
H           15.44119883331310        5.56906649734528        3.35886464015631
H           14.68134295821162        6.92689693733972        2.52793806701449
H            9.10095303800155       14.78841176132964       20.43361917375461
H            8.25216558950918       13.39275344138657       21.11779419161369
H            9.97930988767192       13.28195006465339       20.73450942696369
H            7.49980584020448       22.88645043617589       16.65378337391873
H            8.27323241601363       24.47715559040577       16.69268622890604
H            7.07883021583507       24.10163827114560       15.43836595282395
H           17.91339155307733       16.82571003196753       12.67156193410328
H           18.98760690313791       17.23814703631757       11.32841536593803
H            4.57655840642890       13.35214423188896        0.60322107372737
H            4.13530339431753       11.72689591203497        0.05693800880053
H            3.86154006575584       12.20214954395307        1.74191733425444
C            3.35071524455537       12.28833777648926        4.91384206141117
C            4.21319249249791       10.12560830090842        5.81338509085865
C            2.17761240029971       11.19475613110859        6.82497085648954
H            8.80019771660289       24.87454605912849       13.76216864323220
H           10.00874919514459       25.09982504286197       15.02899563233721
H           10.36819213573879       24.05224204949267       13.65072519710160
H           13.91482216943440       17.73467229318145       16.52216136807852
H           14.99797101878427       18.55465672981847       17.65994997351133
H           14.49801542161306       19.37106861935032       16.17462012057736
H           13.71834047620230        4.07305683202661        2.12966658708538
H           12.91586610487454        5.49642120052257        1.44729578145106
H            5.11598478907153       10.11838247732538        2.40590136350800
H            5.51035439296757        9.73862164306642        0.72837147046376
H            6.80924940855883        9.89964754232363        1.91765150004767
H           17.55514511246647        6.57484756562719        5.66361697351532
H           17.69667121983208        5.17947243062857        6.74530764255048
H           16.24682191207950        5.38604854739981        5.75243300445713
C            9.94841425074143        3.12007485175366        9.31764327281649
C           10.67538310932137        4.13917690170644       11.50025938781519
C           12.12778163175338        4.31294809643192        9.47746274010637
C           15.98641822082553        4.31673434895158       12.22076161483887
C           15.72402426579326        5.55615934353153       14.39054523079941
C           17.66090384454904        6.03345601318016       12.90024676306869
C           19.56377925513709       19.93709055837454        9.82014545017823
C           17.53768478445056       20.26615629047246       11.28127546749207
C           18.49464242960468       22.17881752117022       10.01102574996992
C            7.55249446888100       23.34198238286571        0.53827578538451
C            5.85418126865684       23.12542849870421        2.38394856263761
C            5.74861378519364       21.62870179556433        0.39500611808983
C            9.10038143950571       16.31739003821351       -2.32726085190726
C            9.40998761689374       18.42478128421801       -1.03797183169611
C            7.41945976279192       16.98166266799222       -0.59379566029103
C           13.37975503845214        4.63782340823780        4.76343023507551
H           11.98880106729726        4.33896854006483        2.41279243440154
H           12.46608549124296        4.05142212648283        4.86238139448914
H           13.56152979173228        5.16877527543643        5.69803363241666
H           14.20722265618330        3.94733382189590        4.59573726834993
H           14.67451848367499        5.27186599063761       14.46093069665792
H           15.86500323676069        6.50821184380239       14.90223372035945
H           16.31921078909272        4.79808350788376       14.90060292622761
H           17.84181686753221        6.98565264795138       13.39923639123010
H           18.03269729847086        6.09091692836210       11.87696311277989
H           18.22691573610531        5.26241782040428       13.42426262009048
H           16.27797849048832        4.39593951240595       11.17303092978536
H           14.94809314969270        3.98926689915520       12.26681855140545
H           16.60889998797565        3.56040995960896       12.69960866448950
H           19.64708965304896       17.04365989368396       12.95410340492092
H           20.05268969734311       20.23006585271891        8.89068046061627
H           19.41922977847123       18.85731950064450        9.80688148211841
H           20.21866072870148       20.18798699163246       10.65504615522492
H           17.38264681771994       19.18943656927651       11.33365179719926
H           16.56666474753854       20.75565301417668       11.36249626657048
H           18.15136369278911       20.56612408159323       12.13120752780742
H           17.56745380628211       22.73815520837736       10.13627513396128
H           18.99518982356196       22.51784357444597        9.10406265077971
H           19.14158475925496       22.40240530440789       10.86022162685812
H            6.48569883855816       23.70380373090838        3.05748492140351
H            5.26115543070002       22.42916618643396        2.97763662187883
H            5.17749505006228       23.81067420393519        1.87262288508284
H            5.10600362418316       20.93158520696448        0.93361332104200
H            6.30303601209938       21.08318545051598       -0.36897682730861
H            5.11130257359678       22.35947387255719       -0.10434253656552
H            8.17582316026244       22.79822507479967       -0.17212588701002
H            8.19985566434133       23.93029650048794        1.18787973745272
H            6.90662040499559       24.02478968315686       -0.01443980723164
H           10.47470078471909       18.45884734389378       -1.27042430773246
H            9.23412443899207       18.95869050928019       -0.10404034916346
H            8.87038200324932       18.94451007629405       -1.83072421940706
H            7.27603869350076       17.37983928123922        0.40992578841246
H            7.00875884976607       15.97255246029490       -0.62444054045762
H            6.86575750191837       17.60236535703987       -1.29877923643523
H            8.71494294679464       15.29851894383163       -2.33507522412844
H           10.15538657598128       16.29043190494212       -2.59607702814655
H            8.56527479258391       16.89127734707120       -3.08464028574139
H           14.69431439042712       13.07694424843310       -2.51144033107046
H           14.10138008650147       14.06287265921211       -3.85419649675903
H           15.36786402693957       14.69019383726470       -2.78513579656156
H            9.91827143339438        3.25032996295320        8.23555883734636
H           10.47367759522012        2.19162467762638        9.54363582613260
H            8.92613488276389        3.03538949950038        9.68505468758948
H            9.66051021623151        4.02760348950595       11.88147122139272
H           11.24733739888893        3.25405328823451       11.78032214359729
H           11.12645681268682        5.01064823951254       11.97557145805760
H           12.69463314771792        5.12732958326320        9.92824745633635
H           12.60801295933057        3.37348849059518        9.75412653397315
H           12.17121069471104        4.40994427086795        8.39229017469369
C            4.55008122234809       17.39031002962927        1.87484297689386
C            2.55188034630879       18.12965888268133        3.21166275776957
C            3.55290457634621       15.86878151813584        3.56882486909074
C           19.13546732407510       14.44564327521550       13.34964233553950
H            1.69997528475664       12.13645032693527        7.09647517851797
H            1.53649344065228       10.66769464982956        6.11777995629091
H            2.27892528232208       10.58626745173059        7.72344821944821
H            4.19409577365233        9.42495928097383        6.64741710668952
H            3.68612622585492        9.67063661849573        4.97429033748066
H            5.25225328648989       10.28563531917209        5.52505364234079
H            4.30795696848568       12.54569654840586        4.46157546436140
H            2.77640044396800       11.70670332432831        4.19162547118807
H            2.79935130310550       13.20517221520425        5.12238660281226
H            5.52337521627437       16.90213312972992        1.92352494193635
H            3.93890890436994       16.87483305158267        1.13339816831371
H            4.69383563102977       18.41813417858137        1.54346266416119
H            3.01161684862462       15.77640656936432        4.51036085284843
H            2.92797631751789       15.45284938000718        2.77750498013563
H            4.46819119819644       15.27877598757576        3.62407832546266
H           19.38523550132438       13.39075184810370       13.23574884139071
H           19.87998147130528       14.90052479903976       14.00409857762459
H           18.16166072065037       14.52937464529776       13.83266103874503
H            2.73492076055241       19.17028949629895        2.94439268122246
H            1.87611567535970       17.69569739332425        2.47407925154810
H            2.06828593995622       18.10259555881244        4.18838753594612
C           17.43880647955605        7.36547874947403        8.32905108602019
H           18.14606690936283        7.92197889328913        7.71523465879233
H           16.99160448381487        8.05026835360229        9.04828774901909
H           17.99075816891837        6.59911398866038        8.87430204939152
C           15.54919773574446        5.74332281102740        8.35332482256006
H           15.03690298178216        6.27935572832699        9.15183791135133
H           14.81416413949217        5.18774686063019        7.77105077585737
H           16.23137132265057        5.02296423367424        8.80685165526163
C           11.05786185758740        7.46558834307712       16.27870440111444
C            9.59346591874903        7.88575518623316       16.47130020335987
C           11.08243813566035        6.09878058811163       15.57047764227592
C           11.71176955658693        7.34140848890172       17.66664266212396
H            9.52582014199722        8.82857341162450       17.01473739859929
H            9.08802414378830        7.99318204850063       15.51149271950774
H            9.06770412934841        7.12397492510591       17.04833041603734
H           12.09563138833495        5.70091693040006       15.51888322920636
H           10.46039820938518        5.38390488638170       16.10994019118542
H           10.70008578527317        6.19612254056546       14.55407788815410
H           11.15940247705470        6.62911691050978       18.28025566182675
H           12.74256538334064        6.99838653227388       17.58125222037036
H           11.70931884452742        8.31013258110115       18.16715373065572
C           13.64215493310013       23.51323544737166       13.11427338530194
C           15.10818168888035       23.10322073218107       12.87862303944537
C           13.24547035697286       24.56415141810917       12.06775964906931
C           13.51905518710152       24.15715313899128       14.50617867857815
H           15.44361318310664       22.41345522710467       13.65320357767405
H           15.20731153939198       22.60777884806705       11.91297658007852
H           15.75518151912015       23.98077749407272       12.88912408396207
H           12.20011299474493       24.85077443367207       12.18538573144738
H           13.86141271394704       25.45557860267304       12.19323150008304
H           13.39655193490579       24.19094376031592       11.05517498713099
H           14.10920784344305       25.07344782407361       14.54351543008948
H           12.47972434983066       24.40658160859530       14.71663327475100
H           13.88007334547844       23.48915926887281       15.28723457337241
C           15.24153822795282       25.29552145740470        7.70637438250555
C           16.24748520730266       25.52958584674018        8.84208073837257
C           16.02051856376132       25.17522134063684        6.38441016811451
C           14.29738554580693       26.51000276920113        7.64639403717327
H           15.73956356978143       25.61462609942196        9.80310617386412
H           16.97399576937179       24.71881442568672        8.89449408919936
H           16.79059129576145       26.45784490511294        8.66061542452981
H           15.34090996596260       25.06341401615874        5.54009235293531
H           16.62792177724067       26.06636223291967        6.22383447190682
H           16.67817547544239       24.30594687904107        6.41671647168149
H           14.87516619127743       27.42766885734490        7.53256659800677
H           13.60917989572832       26.43155153301959        6.80547291107998
H           13.71539073959159       26.57539134549924        8.56616947996842
C            8.31796661236780        9.35075179434754       12.50486082484315
C            6.94562913090606        9.40644403133160       12.30051473150789
C            8.89412472582536        8.13491315288487       12.85905311404135
C            6.16318132672254        8.27897114182221       12.49107976477441
H            6.48563445540331       10.33899737834931       11.99825978192941
C            8.10607855837175        7.01172711959829       13.05357659268580
H            9.96717639671984        8.07041290119534       12.99502859206066
C            6.72202689211919        7.06362350824125       12.89395219761676
H            5.09451535633253        8.36322999191446       12.33093351031883
H            8.59970211113506        6.09124540914495       13.33793364853880
C            5.81172230036842        5.87716791648529       13.18240877477885
C            4.94958234149270        5.55838183274273       11.94886344418614
C            6.59495688710133        4.61202571075467       13.56064104717238
C            4.89825481897998        6.25243928629404       14.36446414522045
H            4.34424021106535        6.41596283112203       11.65776345968980
H            5.58473764945713        5.27986630859089       11.10796694782020
H            4.28112908495916        4.72507069896391       12.16754612065724
H            7.18238242069231        4.76998720196600       14.46534140964505
H            5.89709630312426        3.79501601059402       13.74755305306969
H            7.26183779604691        4.31015460565765       12.75246938950684
H            4.24217947266248        5.41780312446371       14.61298753045461
H            5.50155911925404        6.49501893662983       15.23978883391387
H            4.28112062747223        7.11640077442641       14.11908142413494
