90
 energy: -132.951036806473 gnorm: 0.000681408672 xtb: 6.5.1 (579679a)
Au           4.57722288640981       19.34926319953217        3.37875094925462
Au           2.80338118721500       18.16744114577071        5.28468987066424
Sb           6.18589606162387       17.35273190685932        3.66004395993262
Sb           2.97190673984036       20.20754904714537        6.85919538635286
Cl           3.12392498508233       21.13858344878866        3.73784253736026
Cl           3.15791545864888       16.33873386407445        3.88097134180801
C            8.18674378172269       18.09670217424933        3.66595630053647
C            8.36308561019036       19.46525010771623        3.84715757540928
H            7.49558511021821       20.11394734958432        3.92536147652459
C            9.63061118815139       20.01875606346594        3.93007869891602
H            9.74215195933342       21.08914744822952        4.06811899635539
C           10.75792248864337       19.20822242750043        3.83410982062746
C           10.58662169917583       17.83959464312937        3.64451080449462
H           11.45434648005283       17.19313687133112        3.56420940333706
C            9.31600974697513       17.29178706888665        3.56158836054284
H            9.20929802607422       16.22271024058712        3.41485076166467
C           12.13690365735751       19.80339069366436        3.90943461204949
H           12.83700577494757       19.10404346976004        4.36701855088370
H           12.49637900774364       20.03369516611591        2.90389904871362
H           12.13044717502909       20.72750686637249        4.48775740257275
C            6.37463832317973       15.52954691993291        2.58780971695436
C            7.01803047477737       14.43389142300026        3.15005159645673
H            7.41723341371949       14.48972722393787        4.15630922339753
C            7.14856833383933       13.25730752763398        2.43086721067114
H            7.65145085626003       12.40794432804773        2.88122206475649
C            6.63837202066647       13.15629797846297        1.13871843826666
C            5.99557756335721       14.25641381648353        0.58068730990591
H            5.59071701145947       14.19563802966399       -0.42382734967190
C            5.86418742877276       15.43422121149037        1.30030468927994
H            5.35601385791860       16.28056165839634        0.85161268518538
C            6.76878156013743       11.86809425504869        0.37423281334405
H            6.53297021004661       12.01278438280638       -0.67983833173467
H            7.78188313107463       11.47265622889915        0.45834715436185
H            6.08208452159583       11.12306017912182        0.78167804665490
C            6.14942419558890       16.74060212227436        5.69791509874082
C            5.49160106423414       15.59431667608199        6.12943300080401
H            5.02673420883969       14.93113462908584        5.41059214595390
C            5.40232204018542       15.29545919264059        7.48075045499117
H            4.87509098710969       14.40091973657274        7.79469144278370
C            5.97418099128804       16.13448927670061        8.43064553993246
C            6.65459096302304       17.26998946641887        7.99759264762325
H            7.12433831367006       17.92524805013533        8.72297993575753
C            6.73485743900025       17.57238744001834        6.64851244924895
H            7.26178346718259       18.46796636110339        6.33903873376651
C            5.86585941572308       15.83862502765171        9.90092142937801
H            5.28809688960272       14.93166815891104       10.07722722563890
H            6.85848744717869       15.71108485416698       10.33660037118956
H            5.37777428561911       16.66883970932735       10.41527483822269
C            1.76080284707041       21.95242121283447        6.98144664913235
C            0.54318788216611       21.86844472719826        7.64744685021016
H            0.22672913930887       20.93101796478317        8.09123533321548
C           -0.27528766395491       22.98113025552428        7.75325086890721
H           -1.22173574332301       22.90116080976051        8.27752355093617
C            0.10716214643929       24.19580326148987        7.19022552281673
C            1.32304307377895       24.27207644163098        6.51801538069465
H            1.63482635790246       25.20862654285336        6.06808044799274
C            2.14224962201127       23.15940580790368        6.41175313772830
H            3.07847169845330       23.23822109257249        5.87318990911889
C           -0.77321436015747       25.40730882751962        7.32500603558704
H           -0.55323812075090       26.13776800895946        6.54658322339197
H           -1.82593648928272       25.13008708685376        7.26348964753716
H           -0.60457565686017       25.88068628944898        8.29500350637767
C            4.97930945415988       20.91784031084235        7.02211374958137
C            5.75519714327661       20.48175695998366        8.09248539940331
H            5.31465153687535       19.87635723587550        8.87499283063230
C            7.10101804399172       20.80310653855556        8.17574263093715
H            7.68249266721021       20.44928082261123        9.02065310961981
C            7.71036392461839       21.56452167416854        7.18307348068502
C            6.93133835580025       22.02435179347491        6.12616796520166
H            7.37864563202787       22.63611758735247        5.34989321736465
C            5.58399027361055       21.70654649633148        6.04834251864679
H            5.01018960263579       22.08161929772013        5.21290187391484
C            9.18326224559981       21.85991713829493        7.23936897758450
H            9.52531911870742       21.94340640746739        8.27112561077515
H            9.73825506273329       21.04799625879485        6.76306139355436
H            9.41606293208301       22.78489956023429        6.71178372965783
C            2.76687355903431       19.47943822628496        8.85293490772357
C            2.69706333821944       20.31432490933171        9.96560343988831
H            2.71161529369975       21.39090260674913        9.83560054872990
C            2.61140570183125       19.78746249265711       11.24327103544280
H            2.56052770706367       20.45501940765002       12.09712324206461
C            2.59152239983251       18.40830376726404       11.44213801079480
C            2.65540981676822       17.57016694811512       10.33429482402350
H            2.63138744077878       16.49350066360396       10.46547990764126
C            2.74343129440001       18.10415792652087        9.05728381522865
H            2.79550517122741       17.43288324079306        8.20537112922931
C            2.49795619468209       17.84788012007430       12.83450646579403
H            2.54453953625049       16.75914786345731       12.82262771483723
H            3.31518228626065       18.22638339090139       13.45092714761643
H            1.55845909425454       18.15102095881845       13.30043881996645
