88
 energy: -130.543475541148 gnorm: 0.000093350506 xtb: 6.5.1 (579679a)
C            3.94148147755328        0.58100739013813       21.54960626367110
H            4.14892913395716       -0.45030272309672       21.28886074510523
Au           0.07853096094163        1.29809807239118       18.96006917967358
Au          -1.33903786348528        1.04244785000432       16.53751631409887
S           -2.14360527379553        1.94085811925750       18.54301524113740
P            2.32713361543495        0.72987978315503       19.22452978090390
P           -0.37821749444990        0.42110002223106       14.50519185450917
C            1.27263119356771        2.62723067325887       14.76015560326342
H            1.09245302585024        2.49990460112177       15.82299495942619
C            0.66355042810113        1.75853365063189       13.85117333804624
C            0.63269239872380       -1.84360513505677       15.76393605933723
H           -0.16167245354128       -1.67432159003705       16.48372249311319
C            0.77160460305130       -0.97868777947846       14.67605486320929
C            0.90104152176669        1.93697481550170       12.48560480847843
H            0.42544628333773        1.28253033580921       11.76411235457632
C           -1.47346882871206       -0.02939707297909       13.13016987198461
C            1.49965745041407       -2.91252804418789       15.93170028389414
H            1.37742462271850       -3.57600471085107       16.78003727942962
C            2.67388083663092       -2.27172744596308       13.93543597372823
H            3.47167906296718       -2.43567618329407       13.22041965580851
C           -2.34575755225592        0.94751285366100       12.63676102252360
H           -2.32338369242683        1.94805979084250       13.05611368346097
C           -1.52291594511360       -1.31752780807906       12.59376853142853
H           -0.86092220619732       -2.08808139367987       12.97197655128194
C            2.10540173275902        3.64285345836322       14.31968242215654
H            2.57207462425984        4.30640756833631       15.03863924290013
C           -3.23035637959053        0.64566991613790       11.61492468438335
H           -3.89651803477593        1.41205409859457       11.23611912966329
C            1.80408518599252       -1.20680863947795       13.76113636167732
H            1.92791390075884       -0.54475873126398       12.91146184038513
C            2.33913370884699        3.80702961875911       12.96091425003602
H            2.98871904330413        4.60221578128928       12.61456231874755
C           -1.80162254716163        0.44650619528978       21.49383379666454
C           -1.47804124624153       -0.90841643471419       21.56645024486991
H           -2.17015502052513       -1.64894877420082       21.17997363497382
C           -3.16550385241906        0.69699754032134       19.37772940524490
H           -4.18259673730583        0.86657469785310       19.02470917435446
H           -2.86333261076557       -0.31257528050034       19.10337853566648
C           -3.11242058482161        0.88504018102350       20.89424717918021
H           -3.30176638070328        1.93538730196398       21.12958960098300
H           -3.92248681977391        0.28970534255184       21.32839968530119
C            3.38784582425181        1.29986396697353       17.85893644704067
C            4.19011287031977        2.43806971425312       17.94794643344978
H            4.24391830364516        2.99271083391896       18.87779412494740
C            4.07798478357175        1.02652791829868       15.55723913309883
H            4.02800000180582        0.47201567688505       14.62687767343358
C            4.87888633595732        2.15671533392227       15.65842684683692
H            5.46037246123692        2.48805684930495       14.80620506493725
C            4.93072914447664        2.86043573031797       16.85365320560797
H            5.55406332846796        3.74308093941547       16.93777146808958
C            3.33301851557631        0.60525934747005       16.64607960137739
H            2.70702928769034       -0.27640653207486       16.56335469373322
C            2.58265097712521       -1.06631574663565       19.22304280318377
C            3.11805874302194        1.35814311827229       20.73302833363099
C            2.85022866768958        2.68084562766827       21.10249142929485
H            2.18920688336118        3.28504112874745       20.48958493048230
C            3.83944700519266       -1.64008118759420       19.00074378948966
H            4.69522262898617       -1.00444331676280       18.80320601424364
C            3.99396654630732       -3.01701382145852       19.02108385426378
H            4.97264694768120       -3.44961974830812       18.84881734389139
C            2.90173772384059       -3.84040826802004       19.26263106215356
H            3.02715946519937       -4.91655252719363       19.28222362892161
C            4.49366839792036        1.12086934505379       22.70143451865269
H            5.12921962177580        0.50639546716820       23.32846056066605
C            3.41057502987303        3.21850300186952       22.25028030956789
H            3.19768822997570        4.24556329552093       22.52281035289250
C            4.23364380797451        2.43833093411166       23.05190819641900
H            4.66626866863501        2.85584140509377       23.95338287468388
C            1.49056548612254       -1.90526596038494       19.44967490634432
H            0.50994754128973       -1.47030577326644       19.61048308441832
C            2.52441580094038       -3.12561333069859       15.02048604993168
H            3.20672689697610       -3.95649047911287       15.15619570186482
C            1.64776461224088       -3.28255660579831       19.47390794329506
H            0.79066007070448       -3.91961852441918       19.65868862950581
C            0.59283984687401       -0.37992930246168       22.67507324669433
H            1.51739610735421       -0.70159098224801       23.14045266007818
C            0.28180592384531        0.96939604089457       22.60403288523257
H            0.95902890488329        1.70771346758017       23.01769299954282
C            1.73393150094026        2.95502185495324       12.04716806659690
H            1.90969851502592        3.08338651740407       10.98543961786857
C           -2.41354784952124       -1.61496091690692       11.57309145511807
H           -2.44048781639252       -2.61730756956233       11.16157480197478
C           -0.28994582048040       -1.31797972144322       22.15506838796202
H           -0.05790849276702       -2.37501882319368       22.22015217445729
C           -0.90515073176853        1.38288999101679       22.01013521407261
H           -1.15503352011635        2.43755509600230       21.98603082714450
C           -3.26541103371783       -0.63634524380997       11.08102866861901
H           -3.95963635244301       -0.87230314974515       10.28314105515047
