498
 energy: -714.768656382109 gnorm: 0.000468480413 xtb: 6.5.1 (579679a)
Au           5.60228503661686       14.08282322364130        4.94568708063587
Au           9.22486355675511       10.43677413762599        2.84124846089836
Au          -2.73219565412208       12.00317782748508        8.76978595128316
Au           6.21291342286798       16.32137233137339        2.66373943424848
Au           9.34317269417749       14.50022802925712        9.04835591907499
Au          -0.17565295101958       10.67859247938233        9.79666689234698
Au          11.92088499388657       12.03665521961742        3.77679935956574
Au          11.12294425108755       15.65549611195228        3.57382398424913
Au          -1.89377100744194       15.63772595370950        8.91483476935545
Au           3.31338003255259       16.47722171408807        9.76604933108244
Au           3.51620893636776       13.51967297585521        3.17341986614579
Au           1.61038903477017       13.82037641014177        5.44285464011955
Au           7.46302950480138       13.83099941390036        7.08464218154830
Au           1.20609153813918       11.82287373800143        7.50534625758614
Au           3.53294044533011       14.11513630693443        7.43327596709612
Au           4.02338227674722       11.53341475933629        5.09831550999933
Au           5.41830902013030       14.18383101046174        9.45038637709719
Au           3.25118304905820       12.39327944467568        9.68470596355874
Au           8.09783064808496       11.78700050603132        5.14707693546976
Au          -0.85774189603138       13.62913097403734        7.02361865316330
Au           0.58701577413350       13.85585247154076        9.30815936216582
Au           8.64626282344308       13.63269349778724        3.17302253667347
Au           3.31960800203392       16.04015814706609        5.16246984721425
Au           5.77268581895688       16.12806793273712        6.99434689742293
Au          10.05838661306906       13.71470313648923        5.49977899101023
Au           5.29739459037777       11.83724526390812        7.90676510970972
Au           5.88175910100788       12.02516750192148        3.07572822590058
Au          -0.31053421690822       14.07941805682374        3.45205909099643
Au           1.51619363500554       16.02056437004672        7.32587111303063
Au           7.78108878834142       15.88405031324267        5.10798176595746
S            2.78672575617412       10.13320659362903        6.67732695462847
S           -1.86373615260735        9.86019519444412        8.31045474326111
S            6.40473802159307       10.42646327770463        6.26812627125935
S            7.56843506790448       14.72847424571030       10.56470957579499
S           11.05355534694920        9.89899197910052        4.26384053839207
S            7.99700103117460       15.32583452936833        1.50550353071460
S            1.43308031026064       13.99517588172738        1.90575924782812
S            1.65343614031149       11.23238641071429       11.21337274870801
S           11.19375072132858       14.36414806116665        7.62099233336036
S           -2.05633654183935       14.41451063757611        4.97778677338573
S           -0.40842158824164       17.31500743993443        8.18537754258281
S            7.32499815534962       10.79063224643252        1.47578597247438
S           12.86615131120250       14.12186900336083        3.18960739259465
S            4.57485995179310       17.63822455310491        3.73556001191123
S            1.43238126816916       15.58976947761577       10.84019870826436
S            9.50019331626648       17.27787470275382        4.02606569386793
S           -3.64355613920060       14.11269850947281        9.34600558715755
S            5.12675748760159       17.62583918614829        8.83848235589732
C            1.73852891111073        8.94984040392583        5.80319747747329
C            7.06457272485925        8.87662692216836        6.93407676692645
C           13.03742350425746       13.95392794157739        1.39574859375153
C           11.78724487026324       13.37504738650333        0.73672234943290
H           10.93374661430310       14.03105011632538        0.92971248550793
H           11.55627337840151       12.39776945060317        1.17077428787215
C           12.01988295811921       13.22897619359247       -0.77111662256041
H           11.12147548681841       12.80471370518379       -1.23530549311665
C           11.99120108536124        8.70574945960504        3.27400118064864
C            6.60382105143082        9.13915112918758        1.32526059725435
C            7.32252738510145       14.65952893219978       -0.03357414864149
C            1.07699398772182       12.58648400569910        0.82377448790372
C           -2.79971476112619        8.69274918214979        9.33313797967792
C           -3.22140126929615       13.08604927809273        4.59584672694530
C            0.20039217013436        7.01189863889047        6.17405546946839
H           -0.27361127446506        6.38365138019682        6.93858136635381
C           -1.94932942342538        7.43130554377900        9.49685845554426
H           -1.01593403190019        7.68216383497009       10.00974141452634
H           -1.69281953834159        7.02941155347285        8.51302189322276
C            1.07876585667918        8.06338338239403        6.86085898334438
H            0.46714630549103        8.67961918301806        7.52435679768677
H            1.84983167124094        7.57659739300603        7.46494943101399
C           14.12934644897675       11.52869868797466        7.63478458362795
H           15.03837531261852       11.48634913733864        7.02242830961429
C            7.86955373563852       13.28562046569825       11.61499650728575
C            2.99671328566187       18.09931361567150       -0.56207546276291
H            2.39138773287522       18.38267982263539       -1.42842953580322
H            3.86052178773829       17.53240449296732       -0.92504186093132
C            3.52710956146844       18.07690466748499        2.32795501866777
C            0.66142176663956        7.71814965547148        3.36885943431139
H            0.04242068716826        6.97316403378111        2.85979336801739
H            1.13681414500078        8.34011711521967        2.60473831981941
C           14.22609160353285       13.02248541549432        1.14612293545288
H           15.11801237229215       13.42598381110183        1.63356722946046
H           14.01983802148137       12.04173569106715        1.58556688176809
C            2.60975770735429        8.08603597122734        4.89219091929074
H            3.39454254176873        7.60352656979962        5.48019639197832
H            3.09292393017277        8.72022612914678        4.14269984027127
C           -5.21883775046549        7.86679506266944       10.77839852537912
H           -5.79098406916686        7.13170490939496       11.35245299378476
H           -5.83568975698364        8.76451714375774       10.67013078019352
C            1.84314888954560       15.08137585579117       12.52710590188296
C           -0.88102199211776        7.71703199484694        5.34766266716302
H           -1.53461470252791        6.97859376176755        4.87355099751817
H           -1.49504124649735        8.34230232847598        6.00601736337399
C            4.34387022018119       18.94966446480225        1.37369612376101
H            5.21589208587224       18.38941096322861        1.02336202463010
H            4.70553696598273       19.83730426034343        1.90019227477221
C            2.36464794804068        9.60046921818681       11.52625085019018
C           12.31011223158223       14.60759983355029       -1.37428238540136
H           12.46332748182380       14.51857173391639       -2.45404661853728
H           11.45657949228227       15.27272305800293       -1.20909935436973
C           -3.73557138032880       13.27012803771030        3.16604822598954
H           -4.18053688425736       14.26333450174938        3.05826170378337
H           -2.89824932397889       13.20158635387041        2.46522380524009
C            0.66188305230322        9.64270715601437        4.97187572668607
H            0.04114606331518       10.26500601743492        5.62320229378145
H            1.12861243431641       10.30028734472758        4.23208101510088
C           14.75722285419828       14.26118483541864       -0.96397895860165
H           15.65911770057138       14.68008169855151       -0.50701402717798
H           14.93655935348063       14.16782953754396       -2.03942129523033
C            1.07233661389404        6.13893848479440        5.26611950511127
H            0.45918472003946        5.37472436710955        4.77871565193990
H            1.83653127115975        5.62971002514635        5.86176407381206
C           13.20709419831791       12.29210623685773       -1.01851003094995
H           13.36859993086968       12.17140119456801       -2.09399983274782
H           12.99543343313622       11.30393325538892       -0.59701800187250
C            2.17221114213630       17.23235296475674        0.39475454598817
H            1.83685948241509       16.32171105597922       -0.11803933570836
C            1.80726570536906       11.32267049768360        1.27231992689342
H            1.47833296186675       11.03970651452091        2.27613375714128
H            2.88325368805967       11.51457866036976        1.31654619962156
C            8.06303197138170       12.20414100694163       14.34261174980661
H            8.24971891661382       11.37960345175327       15.03730117219399
H            7.82175020381990       13.09417706713933       14.93183475461187
C           -3.85683283170832       13.97074089194972       11.13626305829693
C           -4.78214494995194       10.74161002043241        5.40797362365626
H           -5.51962199010464        9.95719936987148        5.21276617859690
H           -4.41406154601204       10.61092459436430        6.43084527177294
C            0.95728368187629       18.01851262515839        0.89581662960463
H            0.36393531424138       17.38946231513767        1.56741210726193
H            0.32007389005258       18.30587285867393        0.05400917240606
C           -5.06379972271627       13.06258130043680       11.38223241900989
H           -5.94356505499888       13.47447397122822       10.87991544368083
H           -4.86938805513467       12.07297190116489       10.95791943699261
C           -2.62704852815117       13.37969114946057       11.81986460650753
H           -1.76009858704886       14.01332164566948       11.61733154361137
H           -2.41320470947689       12.38893234813955       11.40842217395189
C            8.47501804950191       10.86055356746611       11.76645054324787
H            8.71701347924289        9.96602553147461       11.17887086648249
C            1.52475871542551       10.18935389020001        0.27928292593368
H            2.04916959396087        9.28484869749274        0.61043995716655
C           -3.61595882270499       10.62310026078708        4.42152416001064
H           -3.14932315532137        9.63613596305238        4.52557378103889
C           -4.87508563997818        7.29850578960732        9.39652063416524
H           -5.80000293896617        7.05204451219037        8.86090167748244
C            3.47076228095394       19.35527114313681        0.17951865110430
H            4.06170541607729       19.98112319872867       -0.50039212107351
C            1.73843732498083        7.02469282768466        4.20819598801479
H            2.36818250102550        6.40427312287778        3.55901325492725
C           12.20609912043970        9.17780426203548        1.83753135953846
H           12.75678942386613       10.12324952297830        1.83807412601399
H           11.23898288724375        9.36015437231048        1.35924993572241
C           -5.43048741252550       12.12224209155482        5.26342726520991
H           -6.26549889450864       12.21166634997581        5.96897043261048
C            8.36611274607395        8.53673536229606        6.20999406054602
H            9.10468841454832        9.32573616820055        6.37963965247302
H            8.18750743650833        8.47889707312859        5.13315165871630
C            3.17166026429352       14.34042788484228       12.63647443900813
H            3.98459100711622       14.97822807788615       12.27667024965293
H            3.14883076484444       13.44485583556102       12.01075973721936
C           14.46020666329326       12.88239974877753       -0.36286609002889
H           15.31388373566996       12.21521387146854       -0.53426446246452
C            0.70762250169354       14.19102340509814       13.02676784806639
H            0.64591463800476       13.28941329143185       12.40991109321403
H           -0.23577281041733       14.73500392555537       12.93749135766013
C            1.31700478566659        8.73747190398126       12.23097682068714
H            0.98217227122557        9.23505810219412       13.14554085172248
H            0.44582106634771        8.61497730505220       11.58021452015949
C           -4.07997543704924       12.35088793490985       13.57324849576644
H           -4.25875866006739       12.24970065596695       14.64797727966059
H           -3.87618246726653       11.35324406044044       13.17057592726694
C           13.34842836238141        8.48043757357802        3.94285125511908
H           13.90904729691008        9.41967594041570        3.96167305908505
H           13.20017828453484        8.15417187364070        4.97612698255327
C           12.98549112923808        8.11594874181399        1.05479697914590
H           13.13301201559147        8.46567100689031        0.02547409211158
C           12.42789872185722       12.91757116943295        9.57893438600435
H           13.01257082848320       13.82242039486785        9.76633317228418
H           11.51874819945325       12.97556754954454       10.18571204112693
C           -3.92168534014320        8.21282313474746       11.51838368761292
H           -4.16069599318593        8.62974846890875       12.50467414561234
C            5.99459989413603       13.93445786741639        0.14855384893451
H            5.24839736910462       14.61868080167851        0.56318303827762
H            6.11848166251967       13.11234213588037        0.85607309066026
C            9.31149769129122       12.46259287069165       13.49141781489026
H           10.15433614299158       12.71896349034479       14.14476682399247
C            2.27826771305513       13.04220609710388       14.58456603866487
H            2.46287801205556       12.73131428234072       15.61723279654454
H            2.22654214160483       12.14307372547180       13.96163793961110
C            9.04903982964583       13.62800374031872       12.52960518060079
H            8.82524924653079       14.54039330398017       13.08908700588527
H            9.93803772942251       13.81788442285424       11.92069870774004
C            5.55423698109405        7.18774769232108        2.48285009294563
H            5.24530844599312        6.79147414445618        3.45821806704944
C           11.20146965549764        7.39527317052106        3.26745279027983
H           10.22301599523985        7.55937040142104        2.80586629069706
H           11.03338727270504        7.06196044393696        4.29587291151985
C           12.01440335156166       10.34580587223697        8.23977708553714
H           11.40232793478834        9.45402579044898        8.05715267990073
C            4.56585041141310       19.16558349023540        8.07065660608408
C           14.34737610370770        7.89163342964384        1.72157398122847
H           14.91788893540399        7.14355525505435        1.16285049405808
H           14.92044904401144        8.82423191078244        1.71893622010395
C            7.22538992072973       10.59911302355383       12.60982999743915
H            7.39179585370153        9.75141595685470       13.28118960339249
H            6.39231941675502       10.34922127116401       11.94724469179873
C           13.28243659214491       10.27695881851601        7.38409352841218
H           13.85510742817744        9.37842919282540        7.63320273327420
H           13.00667036277355       10.22025654444794        6.32676511180939
C           -3.13943552603750        9.25461132244103       10.71182884269554
H           -2.21937974586944        9.52326565611308       11.23945745620258
H           -3.73508874362411       10.16566953029630       10.60268301558495
C           14.51193686909785       11.60599476408535        9.11763088380430
H           15.12620359995760       12.49352553399108        9.29817123340942
H           15.09965898007557       10.72637887226935        9.39739859411716
C            6.62791798719638       13.02707687785791       12.46706288989942
H            5.78132073443556       12.79183199021621       11.81568095155177
H            6.37728125201753       13.92855230284345       13.03221250533139
C           13.56412564972745       15.19091115957639       -0.71305769665731
H           13.77548053409407       16.18044251675082       -1.13630367390036
C           12.04863475839472       12.84266411687780        8.09821862083166
C            7.88065487192532       13.17283521649968       -1.96878637041336
H            8.63527212652599       12.48868201944986       -2.37654858020205
C           14.13051104409254        7.41504095366276        3.16238262796190
H           15.10188398429603        7.25670962389748        3.64659571745434
C           -3.06617954042656        6.95206884459089       11.68568852561601
H           -3.61051503341888        6.20647489471093       12.27304152249718
H           -2.14365825357673        7.19656403516140       12.22204055210101
C            6.17333651823812        8.57528332671966        2.67712079970539
H            5.44800204977090        9.24810857065458        3.14482541018350
H            7.03908620448452        8.51027595713034        3.34229616827783
C            0.95455103505857       13.80530749711751       14.48852429119596
H            0.13400793780809       13.16452315577663       14.83532467030209
C            3.41591446095684       13.94518045693966       14.09732290394794
H            4.36501121967464       13.40127164285912       14.17074444619787
C           13.33094988471258       15.33040600366067        0.79731578527216
H           14.21248108037594       15.76343897765950        1.27817127977176
H           12.48420398929648       15.99759225494607        0.98510268488504
C            7.63650215098673        8.20771909279351        0.68863488126270
H            8.51517565834349        8.13965852480649        1.33734567529456
H            7.96226772245523        8.61720101612956       -0.27170923135529
C            6.88981147311178       11.85542031955521       13.42060574200693
H            5.99031624020602       11.67381166133396       14.02193350119193
C           -4.09326440614199        8.34644275213121        8.59262159730005
H           -4.69705914425216        9.25025686435754        8.46826515832501
H           -3.85599634100229        7.96018277275844        7.59713840514663
C            8.90330811011365        7.19562460697672        6.72017076895714
H            9.83795032034313        6.96087261565971        6.19507168280175
C            5.51586895454628       13.38986375522454       -1.19975553871320
H            4.57083538963194       12.85283931153619       -1.05312510089044
C            1.56528823748832       12.99614753489555       -0.56828406986759
H            2.63493707139221       13.21490660956399       -0.52685549962076
H            1.05050656340221       13.90843591645089       -0.88290209852196
C           -4.02348352402777        6.03380337017561        9.55736603470452
H           -3.78504257671458        5.61734299141895        8.57369166604153
H           -4.58213595569479        5.27755668972744       10.11716611805937
C           -5.31647322938418       12.94728193570132       12.89077494140880
H           -6.18078199598531       12.29377596803871       13.06150349037626
C            0.01848347628335        9.91327352479914        0.22338150037963
H           -0.18482720152541        9.09376302519188       -0.47246103638932
H           -0.34471539977767        9.61408527193760        1.21132896110497
C            1.91950612169205        7.36593522246036       12.55796451368485
H            1.16244528902578        6.75125143704196       13.06045601423259
C            9.65313795785705       11.20714338482282       12.68253156914615
H           10.55130100612508       11.38671579714114       12.08389255605963
H            9.85950752449744       10.36992943904504       13.35603078261384
C           -4.12517662561757       10.80154825429893        2.98698908780583
H           -3.29165699401133       10.70863094032331        2.28293878492996
H           -4.85524226072887       10.02195907819338        2.74938001612308
C            4.33329683249439        7.29813965740190        1.56340262426561
H            3.87010734941947        6.31531777944385        1.43422270245342
H            3.59129187423282        7.96622397124450        2.01047787813204
C           -2.73008577049445        6.38545431365965       10.30171620290390
H           -2.11392781725320        5.48484070353911       10.41328741255357
C           -0.20925565317171        8.58898560752690        4.28085802579567
H           -0.97532565584080        9.09348082107727        3.67877359390119
C           12.18927998305792        6.80589733769382        1.04417543337995
H           12.73062589931372        6.04461260283886        0.47441080416739
H           11.21987209891046        6.96354703068946        0.56053172441335
C           -2.57829331296282       11.70694074372595        4.72782153372720
H           -2.19058041605031       11.57464628364561        5.74205285425245
H           -1.73185069813900       11.62686147191313        4.03827147627138
C            2.25842339416499       20.14738038918124        0.68222358999573
H            2.59316735995641       21.05101859776059        1.20112278051674
H            1.63655573099913       20.45522580144593       -0.16393408528110
C           -2.87655824437528       13.26776187837162       13.32729604437306
H           -1.98782541476871       12.84135994852149       13.80862892767288
C           -0.70863702170034       11.18257487146866       -0.23076803635237
H           -1.78925596834668       10.99613692175794       -0.26280767997925
C            4.76938237007221        7.85866845774392        0.20663103767232
H            3.89719344894350        7.94304958373378       -0.45342055209852
C            3.03931613459017       16.83579656924756        1.59076320503793
H            3.89329887486782       16.24328529023281        1.25096720572522
H            2.46045447756194       16.21674673008675        2.27918930107189
C            8.36150493648273       13.70113813962025       -0.61339938435527
H            8.51908405535956       12.86736039862788        0.07777445165246
H            9.30866662816188       14.23251682804398       -0.73273055489013
C            7.86831261910851        6.09964757795991        6.44407747930534
H            7.68085071943087        6.02846908749978        5.36764720880377
H            8.24802151085172        5.13162208124710        6.78492885804222
C           -4.77298823801304       12.18450406992814        2.85204520485828
H           -5.13587073897492       12.32100872175752        1.82593099057514
C            3.12893521671369        7.54874074243036       13.48210592296802
H            3.55968603585439        6.57391678957398       13.73031157214927
H            2.81555027096219        8.02669267561544       14.41547562879276
C            5.30220496180988       14.56049715634944       -2.16504691541042
H            4.94291922025311       14.19075935715001       -3.13028259388111
H            4.54516431752771       15.24113401372146       -1.76182148868237
C           -0.21480847551160       11.59120965833071       -1.62292073723194
H           -0.74182497622616       12.49041566807062       -1.95658042602288
H           -0.42343929425797       10.79196353953620       -2.34055176317450
C           13.34058566819384        6.10098162648514        3.15707851860596
H           13.89919762421848        5.33279123760385        2.61371724602933
H           13.19492518936208        5.74933463258833        4.18325446144839
C            8.19799057744974       12.02692547296065       10.81289386731189
H            7.36399316736243       11.78238011901931       10.14786807358856
H            9.07680278155553       12.20547895642432       10.18732701272043
C           13.23630358127490       11.67215589342361        9.96556913174696
H           13.50410811497251       11.73417535887450       11.02754030843274
C           -4.39279220159989       13.20748351689392        5.57110280332649
H           -4.02894406147726       13.09307402636400        6.59649240366215
H           -4.84200776697277       14.20112083381468        5.48745978293263
C           -5.94712000370825       12.30134883458012        3.83092506416504
H           -6.42315757849347       13.28118996434166        3.72648938151432
H           -6.69681487934359       11.53646236121883        3.60671100002622
C           12.39317627506642       10.41552396311186        9.72174287510817
H           12.95975915228648        9.52363448850807       10.00604830352788
H           11.48694937770617       10.44693910112381       10.33416012638654
C            6.56001710081630       12.42453088614588       -1.76910103215865
H            6.20953657381225       12.01095925391800       -2.71953239650062
H            6.71414031583424       11.59530182479838       -1.07052942117092
C            3.32827712254664       19.00229724305352        7.19697066596308
H            2.49032422031624       18.63948891079831        7.79857045672433
H            3.52584709472217       18.26302317943923        6.41720823926291
C           11.20754855746257       11.59000331922057        7.85702311554174
H           10.28436521813934       11.63943882163522        8.44180665209022
H           10.92567686363398       11.53006811725424        6.80240630049383
C            2.02819966560840       10.59521387936365       -1.11019775385050
H            1.85227727790001        9.78396890880085       -1.82312525357272
H            3.10578135119213       10.78447709847592       -1.07536659854788
C            4.17640810873740        8.41732462719768       12.77660182020975
H            5.04158778256174        8.55558861142223       13.43667359520582
C           13.32191940667412       12.77367113971223        7.25235818301810
H           13.05224165843925       12.73007433805670        6.19227135570194
H           13.91677747351179       13.67816740377444        7.40673505871971
C            3.56934646810120        9.78644000690559       12.44683876996038
H            4.30656049374034       10.42135853438576       11.94778865372631
H            3.26037356069854       10.29138787972085       13.36618335628109
C            7.02226535005527        6.81620119801167        0.49488006322249
H            7.76965644679466        6.15312620042730        0.04196717234053
C            9.17228854501688        7.29391864551675        8.22527284734179
H            9.92264464633729        8.06653844078179        8.41863126819828
H            9.56523303391162        6.34352807957172        8.59901802203762
C           -4.13695887782660       15.36086883393810       11.70918470110898
H           -5.00425240179587       15.79984633954441       11.20823455191147
H           -3.27701821751442       16.01184120341626       11.52412506279944
C            6.59356409921760        6.25258206774740        1.85490864094588
H            6.16824323181445        5.25244560049845        1.72788670591316
H            7.46335925171172        6.16808631874041        2.51472826751216
C            2.15577149252038       15.96710705265365       14.84609368852672
H            2.20007470216075       16.87960004624431       15.45319922373180
C            1.29295960769118       11.86142372686979       -1.56349211341395
H            1.65278512259851       12.15926532545200       -2.55587597508493
C            5.38380153053023        9.24928753530649        0.40930842596768
H            4.65047285336087        9.92409497104339        0.86062076712322
H            5.68103280386329        9.67145669244632       -0.55438193361248
C            3.48459162532202       15.21102253853272       14.95840573925718
H            3.67474043547747       14.94295155766357       16.00216673562532
H            4.30746764315602       15.84741335292104       14.61812881819722
C           11.98100689896077        6.33040873380736        2.48667863554941
H           11.40906489410668        5.39437806498364        2.48580640616786
C            5.80402964923451        6.92402037965917       -0.42945911352228
H            5.36468265063708        5.93403500604020       -0.58543813881991
H            6.11021108415733        7.31484812387105       -1.40480788463597
C            2.66308653940893       21.36323148119804        7.65543680739112
H            1.81654297222384       21.01835510914523        8.25754266157114
H            2.39095266082847       22.32537404833037        7.21099773079150
C           -0.42547229898646       12.30959637113728        0.77055731635099
H           -0.96182481200627       13.21671620678608        0.48054946065818
H           -0.77697962474063       12.01206332495393        1.76320092859626
C            5.36995237620582       21.01335025026080        6.58327651706708
H            6.21481675401244       21.36283319791863        5.97705259467952
C            7.33519481994394        8.98617514942643        8.43290307895731
H            6.41255403614383        9.25202586157150        8.95791546352967
H            8.06776319201639        9.77693525070454        8.61997026707902
C           -3.15816688236136       14.65896666741414       13.90515424069821
H           -3.32727730247575       14.58755114732927       14.98383821853250
H           -2.29518452877899       15.31244210483436       13.74310088468004
C            1.01496556789542       15.07344159180104       15.34675836684388
H            1.18216370756624       14.80806673190754       16.39516099628656
H            0.06335578595167       15.61083239065830       15.28266004485120
C            6.56744701790340        6.43966784309506        7.18054396106425
H            5.82204677716467        5.65753805960660        6.99087805579383
C            6.63011404297626       15.30450499111262       -2.34949766209155
H            6.48500332933034       16.14971704468766       -3.03355655290804
C            7.11744684790504       15.83502762390565       -0.99387607519448
H            8.05751920291038       16.38023360741741       -1.11617693825278
H            6.38001018884937       16.52617253045661       -0.57413652572865
C            7.67690048275216       14.34743190576877       -2.93234074524662
H            7.34174067196789       13.97743157424019       -3.90616801112761
H            8.62411641025151       14.87579946018321       -3.08013199683959
C           -5.60341867427632       14.33891173780236       13.46659093566381
H           -5.79818375638700       14.26479555411924       14.54082296822286
H           -6.49347053760811       14.76243444923592       12.99108473779731
C            2.80848950023708        8.91610901621979       10.23576253593724
H            3.54424436722288        9.53814033871119        9.71619088386723
H            1.95133529097029        8.79862223220734        9.56738626317243
C            5.07566373859663       22.03096381819313        7.69084774962137
H            5.96278850568160       22.16395169371041        8.31807222452131
H            4.82607479275456       23.00083907463731        7.24985655914435
C            2.96620419178210       20.34319103106201        6.55274378219619
H            2.07867783248626       20.20745030111604        5.92134037069953
C            1.44169182835633       19.26952911064276        1.63715646532842
H            0.57736795157294       19.83733228626855        2.00220410943166
C            1.90567268424167       16.35165008480181       13.38084646850167
H            0.96513938388890       16.90204535559759       13.28948998612941
H            2.71051053980512       16.99815548020016       13.01921032003434
C            7.86729231050238        7.64151884310280        8.94903223691427
H            8.05401376112411        7.72080013608388       10.02744895064435
C            6.02633195548750        7.78357582919803        6.67671722688404
H            5.81650458463009        7.72515850946098        5.60537259752086
H            5.09269901602594        8.03448405931970        7.18970477068033
C            3.90330542864075       21.52824691125821        8.54167236867473
H            3.69126164310219       22.25262984226222        9.33764698052550
C            3.41155168666258        7.54740572757087       10.56159047500523
H            3.72525558145582        7.06329299137313        9.62836004189087
C           -4.39463405202611       15.24855392775759       13.21776253835164
H           -4.59812919341075       16.24744155634232       13.62241129630935
C            4.13695611068086       20.83140705156074        5.69320320471923
H            3.87717013068288       21.77626277319076        5.20668512021564
H            4.35592800208747       20.09372971013717        4.91298882471919
C            2.35863535735024        6.67939153411763       11.25941651710227
H            1.49505011693425        6.54153252168827       10.60060134735602
H            2.77513902767689        5.69201878940882       11.48073036884135
C            6.83803761062798        6.53657387480322        8.68539749872467
H            7.21481837206725        5.58054028841056        9.06166996775183
H            5.90600116494457        6.75923307202383        9.21072818584527
C            5.72882061493198       19.66445328295949        7.21344630829083
H            5.93325456211860       18.93181858502199        6.42689628878412
H            6.62507184122982       19.75765578342484        7.83226089061095
C            4.26821206543909       20.17877588547415        9.17804245937191
H            5.14464781535373       20.28949415734715        9.82256389461462
H            3.43971665262116       19.81684628246337        9.79400729983483
C            4.62386756357425        7.73337849724036       11.48084408649824
H            5.37661070291373        8.35032112595576       10.98019003423256
H            5.07732843218950        6.76354736944918       11.70647868378972
C           -1.22472350758718       18.07262905417888        6.75083872675066
C           10.12510268636018       18.29647014854159        5.38119629449888
C           10.42258174908399       17.48290006444497        6.63836374112176
H           11.18636697583489       16.72953767230020        6.42539662940855
H            9.51851924976470       16.95531967818264        6.95744420630716
C           12.18024743886099       19.12774386817756        7.30604079784170
H           12.96348311577013       18.39216155559253        7.09774385234419
H           12.53994883197714       19.78771457345137        8.10128038105678
C           -3.37706540480756       18.41786844899276        5.51081149279114
H           -4.43694433249130       18.13692376449590        5.47884084835422
C           -1.08164380100834       19.90874485248987        4.46033145083614
H           -0.02327173256205       20.18643020374201        4.49689775738366
H           -1.54002996133077       20.43579788044796        3.61801798089869
C           11.39897365245499       19.01012060378041        4.92642439753962
H           11.19898038726797       19.58046476057334        4.01502721747678
H           12.17165496315767       18.26991276921250        4.69725238771102
C           -1.21635903324503       18.39446655335774        4.26876758316660
H           -0.72187146975005       18.09286042744583        3.33816500863915
C            9.04001862096926       19.32887745579401        5.68904772832074
H            8.13103573471448       18.80720639907501        5.99930361183275
H            8.80620805829267       19.90146284782006        4.78717560811988
C           10.90198386673539       18.41252571851929        7.75731908402409
H           11.11034776594077       17.81492457999573        8.65342887791339
C           11.88125195640238       19.94553066496598        6.04408478701801
H           12.79370064928723       20.45702119203994        5.71375125473872
C            9.81008915581507       19.44220884806873        8.06746627633876
H            8.89958227842263       18.93067835237878        8.39614230692063
H           10.13648596605951       20.10233462218573        8.87671890269078
C           -2.69526904298301       18.00282424684628        4.20394635475990
H           -2.78559747309309       16.91945549155153        4.06830108737848
H           -3.17638442127599       18.49459323407750        3.35310962285794
C           -2.70285221404215       17.68774529710859        6.67857723147691
H           -3.20052141266141       17.94253262591315        7.61761887878924
H           -2.79122003989816       16.60821157900273        6.52492182414627
C            9.52074796326703       20.26286961822856        6.80552085854194
H            8.73853543894359       21.00188260743779        7.01893955429118
C           -3.25274375493399       19.93260251577881        5.70782265060776
H           -3.73835616902114       20.45728864783990        4.87930260942460
H           -3.75289862633130       20.22995280315071        6.63478619474295
C           -0.54301107701724       17.67730107091019        5.44298988204435
H           -0.60918788280149       16.59538136723543        5.30515944254559
H            0.51600805487706       17.94652787381225        5.48274239866102
C           10.79511201840204       20.98335015048425        6.35094453524176
H           10.58642674654376       21.58052757902223        5.45780368011504
H           11.14057572875871       21.66189259023704        7.13689967772293
C           -1.10286380154410       19.58748732787409        6.94598088907771
H           -0.04661005062513       19.86231993264600        7.00914735691158
H           -1.57988132029403       19.87428457155152        7.88713139689256
C            2.31588635454495       18.86157562946816        2.83100875915672
H            1.74404416880050       18.23835015285810        3.52422959352736
H            2.64444371659144       19.75231275966357        3.37254221257578
C           -1.76911483256951       20.31310764865192        5.76914626698907
H           -1.67310991234291       21.39614202907829        5.91450873504646
