283
 energy: -430.688974958383 gnorm: 0.000717513808 xtb: 6.5.1 (579679a)
Au          16.07123044353769        5.19560686955140       22.92855718758878
Au          19.74897905510482        5.10918931097182       23.10974781920024
Au          17.92482615024804        7.47840481150816       23.29648435174354
Au          17.69754736269538        6.80728734929914       20.68646552742732
Au          15.17138383803788        8.46223647789280       21.53018926032415
Au          14.75397735390221        7.91700178218172       18.55485599586838
Au          16.65329157406932        9.90188065729495       17.12012552457978
Au          14.48244360154951       11.79002248569514       18.56893738753094
Au          14.80407631814045       11.21703849950193       21.55853493637041
Au          16.75644076410773       10.01158353580749       19.88586551184717
Au          18.75200212317224        8.66019101571879       18.45844088987948
Au          19.50612059389779        8.78822668867978       21.39180440440012
Au          21.03372377179480        6.47647122808888       20.43776528058481
Au          17.26028130562004       10.22143959034973       22.63607331626303
Au          17.29190011462924       10.48835537016943       25.41583665025704
Au          17.08470421673210       13.21087189203077       22.80474246130618
Au          14.41770505236375       14.49000446174452       22.25095789538915
Au          14.51244813553361       14.49891550237699       19.18806492503808
Au          14.57738616356306       12.42529629145113       15.34215863519418
Au          16.46950843652827       13.36740179920589       17.33682744683559
Au          18.67208580016888       11.44923959868672       18.26783897703714
Au          16.75340317765702       13.10815534947649       20.09914204758506
Au          19.22832988182147       12.17976301141008       21.20444571225921
Au          18.60804194224464       14.92017569027718       21.06280764986530
Au          16.41995850293623       16.80457107885693       19.95025463342784
Au          18.61067548955323       15.20556337021844       17.89044398386268
Au          13.52130363156104       17.33095295230141       18.47458968445678
Au          15.36503317105437       15.87896611961538       16.46657503277303
Au          15.84321534601952       19.45922580854220       18.49140255665530
Au          18.65912747992924       18.63689369536240       20.80290445323872
S           17.84412184334673        3.86483807908723       23.71744610254224
C           17.85455494382641        2.37830623391541       22.67765968978991
C           16.57902437386397        1.59943566491622       22.99357011865396
H           16.51910649103465        1.39124659207161       24.06122217306327
H           16.57003481034504        0.65398165489707       22.44892803756756
H           15.70304513367851        2.17861345034264       22.70318289043966
C           17.90458099362316        2.72771012661972       21.19397554909990
H           17.03180444540228        3.31831862837471       20.91758215983544
H           17.91788988285084        1.81763783216538       20.59206013283178
H           18.79901903304060        3.30861821971078       20.97052897346834
C           19.08239394578033        1.55852955012950       23.06977076147138
H           19.99328337775867        2.10649335351443       22.82931526742814
H           19.09150640901029        0.61080278511361       22.52908431098571
H           19.07358475674115        1.35343465635735       24.13966656345627
S           21.67549505994524        6.38726738474559       22.71004797975336
C           23.12147411056591        5.30243035387198       22.89260944540459
C           24.32765471123896        6.07426569234205       22.35993240065220
H           24.20060692299756        6.28563978287927       21.29851949320960
H           25.23940277964721        5.49001272292697       22.49472702075499
H           24.43536451438429        7.01865132909308       22.89236958591881
C           22.95460975045117        3.99345532597328       22.12805880201666
H           22.08507363090712        3.44727241571451       22.49322552426603
H           23.83943434781266        3.36774345113624       22.25726920784074
H           22.81684449717768        4.18911827706063       21.06493166446458
C           23.28482327163149        5.02820358871920       24.38672403263737
H           23.35833622069584        5.96640745871800       24.93586426634914
H           24.18833031768604        4.44338998141211       24.56674555342596
H           22.42645805781290        4.47250607648855       24.76328944224418
S           20.37299791158953        6.82465804059134       18.19598603292260
C           21.81727816140961        7.53240900011891       17.35325315006023
C           21.31912421204872        8.21396717719595       16.08035195377317
H           20.73325402758152        7.51747862843446       15.48132203872040
H           22.16257737206153        8.56791211660105       15.48530079206049
H           20.68887606981540        9.06655116841876       16.33237510483133
C           22.55933262848715        8.53153948226078       18.23543753891591
H           21.88199134084818        9.30085839315170       18.60576952232941
H           23.36221184501109        9.00963343955907       17.67158680545851
H           22.99640855622733        8.02449181597656       19.09555100367800
C           22.73429501823441        6.36227711875933       16.99702094046848
H           23.07970464743065        5.86629515113421       17.90370852073071
H           23.60204514906113        6.71813925570978       16.43911375633516
H           22.19682318973374        5.63625017479422       16.38793898712517
S           16.02801945883441        6.00587646616413       19.05750619564824
C           16.58526844562990        5.21066911773037       17.52000124036677
C           16.92122279527601        6.21760179756544       16.42653054863194
H           16.05224300588540        6.82876366857528       16.18742345277949
H           17.24220047983464        5.69729822211116       15.52239682210680
H           17.72888549903252        6.87229858124632       16.75042486555954
C           15.42437359549114        4.32160877412421       17.07055155390589
H           15.16308889771132        3.61947133991896       17.86135815870279
H           15.70275749629322        3.76012054124410       16.17711451830479
H           14.55001805207726        4.93085177072897       16.84433045408032
C           17.81099755723607        4.35769778823623       17.83297262007783
H           18.64309823665860        4.98783605942880       18.14692656792317
H           18.11539357937069        3.80159047483454       16.94456987190357
H           17.58715037326103        3.64781829821738       18.62711438823279
S           14.16334788926316        6.36320653734693       22.25471469050527
C           13.19405556858483        6.69546316805546       23.75248490677988
C           13.87231430078941        7.71059895356041       24.66728097964727
H           14.84436306033166        7.34508237233846       24.99885087082811
H           13.25220167143834        7.89792330513885       25.54565390270049
H           14.02298623501240        8.65342106475178       24.14220365163053
C           12.99026752683461        5.37629819610584       24.49523770502091
H           12.56749114417469        4.62637783777531       23.82789508685264
H           12.31121323980173        5.52108278978782       25.33717836936652
H           13.94198575793718        5.00637368976381       24.87533996672848
C           11.84752567746662        7.23068194127861       23.26735559117057
H           11.99218535352323        8.15442479725923       22.70940523391771
H           11.18969246784135        7.43083901372528       24.11443599493031
H           11.36880905822853        6.50406645506142       22.61174531255531
S           17.29264764153810        8.15505665434402       25.60836630815848
C           18.69747942932668        7.73217929173612       26.67459498820320
C           20.01889505301765        8.21478958347978       26.08474369225004
H           20.18797486328284        7.76026541689894       25.10909113704430
H           20.84756656884361        7.94537093814406       26.74192180450765
H           20.00604892278194        9.29770770256971       25.96298352590355
C           18.46399527578632        8.37823317492689       28.03974521119016
H           18.48418430697106        9.46422999038801       27.95000670623313
H           19.24162115327034        8.07033864999875       28.74078660777543
H           17.49424412450323        8.08127900503912       28.43723323909247
C           18.70038032378492        6.21072584490831       26.81045066015019
H           17.74234874998431        5.86424714261830       27.19655292176948
H           19.49231013702833        5.89270512494863       27.49028317077963
H           18.86811900681386        5.74567524341414       25.83937298577482
S           21.05962810505824       10.61775806021654       20.86562843429109
C           22.25383397124103       10.72026377287311       22.22735672922385
C           22.61418127168723       12.18714584491365       22.44677313945932
H           22.96339995372396       12.63127581602651       21.51548718206836
H           23.40163290044312       12.27794943346983       23.19692775388108
H           21.73962276430662       12.73940979186214       22.78920216189472
C           21.70855342047420       10.11062920292525       23.51447502725885
H           20.76569856731149       10.58212301169165       23.78747348979819
H           22.42048975114049       10.24891983817923       24.33014325969184
H           21.53800716007393        9.04189749237877       23.38244876544856
C           23.48392597471302        9.94113425285320       21.76026474206117
H           24.26892342850856        9.98245201158885       22.51731586640573
H           23.86639074623781       10.36319842170210       20.83158975042566
H           23.22042523547679        8.89874294778547       21.58547372934519
S           13.37146400862266        9.69853019317869       17.90291863770734
C           11.71425089974293        9.55253225617785       18.62604222676211
C           11.71848981634533        9.78512475346126       20.13139887322058
H           12.38593902478144        9.07759670372252       20.62184482419538
H           10.71351587861204        9.65552288736946       20.53674299528425
H           12.05647275972178       10.79442411567841       20.36160814654292
C           11.18692758648283        8.15498081346323       18.30878488212928
H           11.23413400207957        7.96637788447199       17.23699767096263
H           10.15061686797484        8.06108891639398       18.63767356290516
H           11.78483569009662        7.40199470172084       18.82158484107513
C           10.86209450530709       10.61414060003718       17.93209010767469
H           11.25620404484142       11.60705527255629       18.14604452910174
H            9.83130852124057       10.56302806905617       18.28617750355312
H           10.87368585267497       10.46215076742564       16.85337264819859
S           15.29389048838017       10.20574215302532       15.12119428644395
C           16.46698125669252       10.20667059639462       13.73915209603935
C           17.08068584722085        8.80868967799920       13.67634456706905
H           17.67042965096270        8.61843751907977       14.57276166311403
H           17.73120793587636        8.71897417058157       12.80493998154375
H           16.29695590242959        8.05498700615298       13.60972798498642
C           15.67403672290961       10.49275745530469       12.46488250755240
H           14.86258402244727        9.77398731760804       12.35744864602411
H           16.32417171257097       10.42456326318604       11.59115981656773
H           15.24658189455011       11.49443368305760       12.50531300878717
C           17.56758496007490       11.24824185844179       13.91960523705418
H           17.14182578902056       12.24943664697270       13.98078046520894
H           18.26162797671636       11.21373865248857       13.07814797120185
H           18.12179572200973       11.05373899302775       14.83727332730301
S           16.96321923517037       12.79839135844956       25.23761220320847
C           18.46292942949626       13.58902130889575       25.88391161263620
C           19.72769614665826       13.01136751209423       25.25719844801622
H           19.80588278109613       11.94614851292403       25.47372560012431
H           20.61044579065201       13.51503603418692       25.65430847206103
H           19.70957140261234       13.14271568084112       24.17611036299292
C           18.47813364535889       13.36709336182702       27.39596314039120
H           17.55491297895214       13.73734243932871       27.84015122256427
H           19.32161375776358       13.89319000505762       27.84597286130261
H           18.56866189349571       12.30409909000200       27.61892228425161
C           18.35466208328567       15.08019333702639       25.56986682038879
H           18.36126964018248       15.24096338879871       24.49224095774768
H           19.19454048853250       15.62110281254768       26.00843762545168
H           17.42669163859104       15.48457565861508       25.97319260974135
S           12.93271543499430       12.67205431290276       22.25560253982039
C           12.47767152984629       12.28525952295599       23.96885913509749
C           13.68560325216916       11.96290660151967       24.84056628719436
H           14.23688620133430       11.11819202523380       24.42805456843361
H           13.36282694172577       11.70631248374817       25.85093863547986
H           14.35947358643045       12.81693078162153       24.89862924650177
C           11.54753001749331       11.07546802003782       23.89335813458828
H           10.69417850157368       11.29344994610055       23.25210061268700
H           11.18416770721418       10.81195317143485       24.88786528759961
H           12.08370328634768       10.22302302920229       23.47897761488796
C           11.72972138210705       13.49254974325746       24.53248570267054
H           12.39790195398170       14.35090363282070       24.59800770126786
H           11.34767492527639       13.26855874559732       25.52986288515865
H           10.89291199599162       13.75410830071201       23.88558084447967
S           20.10260319585719       13.43711449172106       18.32550370573534
C           21.28555496236221       13.29005450264815       16.95832268317871
C           20.56526909567712       13.09083365847517       15.62904006900886
H           19.95912558453816       12.18586463066740       15.66361646676188
H           21.28903588192926       12.99547161284580       14.81790766518448
H           19.91130423810493       13.93662275569879       15.41822152964655
C           22.12524274904261       14.56435491502570       16.92350863429642
H           21.49553454692587       15.42600992346763       16.70491181785433
H           22.89271024494367       14.48701650156223       16.15155953438276
H           22.61163881808536       14.72213732588062       17.88534555053636
C           22.16436426186996       12.08199161675810       17.27210216788188
H           22.61013293682666       12.18235841648364       18.26121533025656
H           22.96011827970575       11.98668658220021       16.53178819492044
H           21.56147645829191       11.17525091770326       17.25676034731280
S           19.89346791809853       16.88105614325916       21.73664405049351
C           21.50512431147328       16.87112606467260       20.90360151608381
C           21.40444968124656       17.29921983685126       19.44358863512361
H           20.70199542252982       16.66119565390619       18.90859097906949
H           22.37993215759627       17.22674479868292       18.95936513152506
H           21.05554436112535       18.32862620975773       19.37090946436518
C           22.08171761772673       15.46057702483567       20.99735561645405
H           22.08111998322047       15.12399520350921       22.03313398004714
H           23.10660530360508       15.44416237237168       20.62259705018374
H           21.48416228263078       14.76810693351742       20.40423396379074
C           22.38927945664919       17.85228087867333       21.67503797838771
H           21.97263189994894       18.85745703073707       21.61891084990704
H           23.39654002763260       17.86507246546161       21.25521986295491
H           22.44705354086262       17.55864328913775       22.72247384464565
S           15.98341072969032       16.27351608837903       22.25738499470589
C           15.17017883261774       17.63911601795547       23.14373806444877
C           13.99357827932615       18.18778865831333       22.34476086217457
H           14.34024568838499       18.60308420448539       21.39854969076999
H           13.49219343897609       18.97705750948006       22.90738277228859
H           13.27397063002305       17.39804647811566       22.12881425280160
C           14.69291429172833       17.08970852776186       24.48630234936411
H           13.92174654764346       16.33523080058721       24.33492300254742
H           14.27783854598472       17.89452496932952       25.09505329362143
H           15.52238104221561       16.63351616147313       25.02550034670095
C           16.21380437818183       18.72838575299426       23.37387921480835
H           17.09687773712836       18.31114924931367       23.85591756471339
H           15.80350549606566       19.51496539949850       24.00921978399601
H           16.50991951666414       19.17415352893488       22.42568067903484
S           12.58607913031697       15.84298284544946       20.05512572200795
C           11.05550569768031       15.19651906673100       19.31416354557276
C           11.27024536045670       14.69702548761123       17.88977258562133
H           11.62431480484160       15.49945669086645       17.24321545840684
H           10.33488879659979       14.30920971937315       17.48271330192294
H           12.01301778173593       13.90005874203899       17.87320404081740
C           10.57705400375177       14.05059456423752       20.20390789058709
H           11.31562157318358       13.24925793592565       20.21920108384413
H            9.63242831326244       13.65150288171913       19.83082854511712
H           10.43325734697524       14.39751287559759       21.22673113098438
C           10.03425682350012       16.33383818923792       19.32171332630588
H            9.91284367372512       16.72522259383409       20.33114512460066
H            9.06759427570733       15.97481121186400       18.96439275274842
H           10.36918233477242       17.14335448053375       18.67346659414665
S           13.66458557233417       14.60111356287089       15.39620111565946
C           13.64971095415929       15.15160615894638       13.66779768228920
C           15.03385158058961       15.05860028665260       13.03293616785874
H           15.74397707627536       15.68050223642022       13.57715102556462
H           14.99545054775798       15.39635321275588       11.99594982643387
H           15.39298362133292       14.02972450326461       13.05196475648103
C           12.66029485679778       14.26552667942076       12.91351942188853
H           13.01412919151740       13.23502400154297       12.89676333440440
H           12.55022536294587       14.61447315675804       11.88555491264463
H           11.68563430709236       14.28966847162706       13.39955111247964
C           13.16466616233197       16.60001662995419       13.66876201542146
H           12.18779772553825       16.66675965634283       14.14658328881780
H           13.08301991123529       16.97247788387198       12.64655232579493
H           13.86270110188845       17.23179551381594       14.21778093300238
S           14.30992181886204       18.81083275046381       16.79840564586112
C           13.06987193629381       20.12730320548817       16.58769885172471
C           12.63586020187101       20.72099130863563       17.92353860654282
H           12.18421545756420       19.95417777347217       18.55235006420333
H           11.90455219324393       21.51470944642625       17.76096947996010
H           13.49219931579401       21.13951637585775       18.45126497567747
C           13.72238123162305       21.20169206887141       15.71864698684533
H           14.57872521166489       21.63387361623587       16.23579569296585
H           13.00747912958733       21.99629139055127       15.49851734258881
H           14.06655881815822       20.76847750202162       14.78002723542729
C           11.86522638830594       19.52160170499328       15.86961598329370
H           12.16901592193776       19.09672522546742       14.91379404605593
H           11.11038660458857       20.28819523278834       15.68634715368866
H           11.42264453688050       18.73187114781934       16.47640138884614
S           17.31479717576459       20.42518554092358       20.09350117649769
C           18.40590979124110       21.48053794894133       19.09887896290120
C           19.48222542433103       22.03151629453521       20.03270957461255
H           20.11654219209393       22.74261974857448       19.50083655710143
H           20.10547908212379       21.22030818858792       20.40829703646272
H           19.02233319113294       22.53649930401453       20.88151402676021
C           17.55151047113843       22.62379668183857       18.55379609032496
H           16.79349522285783       22.23607478455555       17.87366950682988
H           18.17477013701187       23.33753491146096       18.01258991071093
H           17.05073886903065       23.14188260551548       19.37101520403574
C           19.04932355403333       20.70858773902753       17.95075025596991
H           19.64780589584375       19.88397046217379       18.33686237740651
H           19.69533720665979       21.36748475461157       17.36776094213253
H           18.28442408111642       20.29676433885360       17.29314359183967
S           17.10195891655345       16.97059925204461       17.63598144926465
