412
 energy: -558.930431426413 gnorm: 0.000153964291 xtb: 6.5.1 (579679a)
Au          19.12485024195060       13.63394560162005       15.91732789026554
Au          21.46801208610722       15.22671890139071       15.36287411674064
Au          20.99414947641801       17.64315151146227       13.88645302416738
Au          22.06868904793523       17.85427970859519       16.50939520154369
Au          20.76833558858371       15.48899658771997       18.22021039444090
Au          19.51175165417818       18.05075396581042       18.37978391666111
Au          19.57838886782411       19.91132328123583       13.03546485061630
Au          22.03061282356509       15.37842965196389       12.61868208123774
Au          23.72610220954962       16.73018554738410       14.46884583699467
Au          20.87525597681322       12.79182403976006       13.98235538354752
Au          21.77482034292724       13.08079990398117       17.20074576124254
Au          16.76729300746127       12.69936420891004       16.95568686655799
Au          23.45688977503145       15.40078969281149       17.45155731630285
Au          22.46686841300441       17.77197025036081       19.18102837941243
Au          19.01274362395068       16.02958489718710       20.26025472455448
Au          21.64452482498493       20.11843571906456       17.86064650788555
Cl          25.90326857148948       15.36627951816991       17.47443388893484
Cl          17.95160935605843       15.43172911060949       22.38573200039819
Cl          14.96968310815696       11.13083168170082       17.44634285797864
Cl          22.35331234386693       11.07929192418174       13.02853536623823
P           19.81950276384769       21.34351061576978       11.14230598646766
P           21.50567317434066       22.41064641693266       18.44604708343162
P           22.93239256421623       14.18150727828426       10.77491083040829
P           25.86546727493160       17.81809438264981       14.68060183726452
P           23.38801905811998       16.83048661970333       21.16808749486173
P           23.20611259755863       11.16378735906440       17.28327093643766
C           21.61504048384452       21.68984771905062       10.91198005108719
H           21.78770611283079       22.27812304151633       10.00550344420733
H           21.95596084746422       22.29155294771293       11.76118122684735
C           22.45272474662992       20.40621166933644       10.85358812940326
H           22.15007185982399       19.79124323419636       10.00192357359919
H           22.27619782892908       19.81737445767840       11.76041338660890
C           23.93558115252031       20.74363780574308       10.75330151613180
H           24.52404472036525       19.82622647904763       10.74189901476011
H           24.14237892531870       21.30166527340857        9.83951402098578
H           24.24315758422323       21.34513957971011       11.60869989461745
C           19.28846521489039       20.74031112269065        9.47846095699899
H           19.38177491998120       21.52465378677586        8.72223746195542
H           19.99681512268627       19.95002199338923        9.20752804666212
C           17.88300289617456       20.13126342386978        9.43527646739274
H           17.82548858248380       19.47649454265907        8.55983637699257
H           17.72429924875264       19.50779005992839       10.32271414512175
C           16.77785890019709       21.17759966782258        9.34289268733292
H           15.81168714516818       20.68875375110307        9.21934695044114
H           16.73988034868209       21.78555360508020       10.24620323249768
H           16.94151141755018       21.83618200832601        8.48904339070766
C           19.10170851871375       23.02625724574001       11.41763998619187
H           18.04079938290575       22.91081721905272       11.65471543907687
H           19.57338538588701       23.41944701749740       12.32445851595903
C           19.25578049084749       24.04740304195900       10.28619693394096
H           18.78183946057884       23.66981161491980        9.37549834935283
H           20.31596005717427       24.20777916692083       10.07102129497770
C           18.60820810277844       25.37320307294630       10.68085596565899
H           18.72123997591261       26.09872476154851        9.87532590021017
H           17.54399370774608       25.23357233585337       10.87734480143636
H           19.07657729342618       25.77430554910944       11.58040104166252
C           22.70130897274686       22.83478248624614       19.79049294140802
H           23.70393756969839       22.86417706777004       19.35322876025313
H           22.50531152108751       23.82616159651111       20.20823191965780
C           22.67142960397645       21.78451712257694       20.90619543970256
H           21.68950589729715       21.78670404968868       21.38868739364030
H           22.81943959349713       20.79023101074693       20.47009333170048
C           23.75427190492912       22.04287380151954       21.94942127189711
H           23.70701469367495       21.28253207927396       22.72956792580964
H           24.74251015306214       22.00890125321621       21.48918640209387
H           23.61833489409968       23.02230389821390       22.40890908290868
C           19.85034872646299       22.89719030569160       19.09319792217346
H           19.10850041472108       22.62537012925731       18.33614698238046
H           19.64165306340722       22.25773440055960       19.95640176856338
C           19.64881501924545       24.36463699221077       19.48776354614001
H           19.76561918038431       25.00330872455602       18.60727157938919
H           20.40413872942801       24.66502597136899       20.22062882048169
C           18.25565083590151       24.56173135756428       20.08152525232975
H           18.09778331932570       25.61334258457960       20.32121913187004
H           17.49086609704395       24.24192345631163       19.37373325941777
H           18.14468632166670       23.97402993289359       20.99364677291436
C           21.91180122437692       23.61309791770507       17.10586311104007
H           22.00230286547629       24.62915371116582       17.50105516397599
H           22.88721553618273       23.33535555702956       16.69292267088061
C           20.87297574767841       23.58461646038349       15.98096003445747
H           20.74891635645926       22.55504397213572       15.62618740077290
H           19.90510396921043       23.91615653348603       16.36582863881618
C           21.29881907289779       24.46904038275751       14.81400027622876
H           20.53347324468824       24.44939805106147       14.03683735620532
H           21.43412625461956       25.49973475003922       15.14322754737324
H           22.23576621699229       24.10813335090096       14.39012694277249
C           23.33043782284826       15.28837295273456        9.35932628567869
H           23.85873407420459       14.74868596932525        8.56791237450522
H           22.38405826653843       15.63989721715493        8.93630584073791
C           24.14864884612688       16.50705460933966        9.79988301432722
H           25.12778744253569       16.18505055685948       10.16869667996355
H           23.63284356901763       17.01072259130487       10.62469665855522
C           24.32548460924487       17.48495819776032        8.64214457171376
H           24.94735158887771       18.32423164473754        8.95382444068718
H           24.80453619222548       16.99314253812633        7.79464471798078
H           23.35488409826880       17.86569390279306        8.32397724353996
C           24.50353331685940       13.33982999658981       11.24267781874046
H           25.17013581275902       14.09319245264266       11.67316932201878
H           24.25983097535142       12.64026893829135       12.04863970088280
C           26.50319036600192       11.93408081968195       10.68118360058052
H           27.02338983933169       11.39648881762693        9.88822651889638
H           27.17520764312256       12.69100436519368       11.08805772820483
H           26.25305666101147       11.22951667843084       11.47482544810319
C           21.89797691284379       12.85077910845499       10.01861217145101
H           22.26419564766747       12.62068081242553        9.01363311771918
H           21.99295919969436       11.94251978995195       10.62025392241882
C           20.42288217902394       13.25391040097578        9.94440504016393
H           20.32254388880019       14.22954515022627        9.45938851536836
H           20.02506549238966       13.35097607849410       10.96106131985002
C           19.61109407278038       12.21417874130701        9.17869108872575
H           18.55349063331929       12.47807483154144        9.19468182447173
H           19.94020603937336       12.16058582896745        8.14053917501088
H           19.73161999715463       11.22842477378430        9.62959255029262
C           26.02567381482812       19.18062471568128       13.44736199143313
H           25.81542124918538       18.77559649501309       12.45373622936948
H           25.22222548504146       19.89462015966036       13.65582826618504
C           27.36433815943681       19.92846141203463       13.42325395586326
H           27.62205699517256       20.26965500575578       14.42997414801594
H           28.16042103282210       19.25814005211796       13.08490363021123
C           27.33932321807062       16.71731106566886       14.49883184499532
H           28.26348966821908       17.29907529110723       14.44032965039418
H           27.38567475507719       16.13195718629029       15.42330717004506
C           27.25711246301658       15.73854980030484       13.32198478694662
H           26.24985594333637       15.31003666045005       13.27876035611344
H           27.95700951456964       14.91901639333630       13.51376305636060
C           27.59566047700279       16.36203884045057       11.97131144325262
H           27.62841552230362       15.58493025538146       11.20672366911071
H           26.84569524176460       17.09584577439650       11.67804530038509
H           28.56850960723404       16.85384853126323       12.00569595192327
C           26.20139371300445       18.65080241773237       16.30085935488594
H           26.00003585755136       17.92486971995476       17.09359322893216
H           27.25905944805127       18.92011707006933       16.37713778267306
C           25.33661895211069       19.89451824791605       16.51119788134307
H           25.64287038821950       20.68961712844316       15.82787592481323
H           24.29375395208667       19.65523085734438       16.28046077886987
C           25.41674305094792       20.40651231514556       17.94415601031425
H           24.87079924277756       21.34659683602192       18.02972815836394
H           24.96977986793596       19.68644853676379       18.63085501092180
H           26.45217542770520       20.57644686182033       18.24030897427926
C           26.88543850163165       19.07048326790182       21.35642271314068
H           27.73221352078971       19.10852458533423       20.67122023410693
H           26.37340906213192       20.03346246764001       21.32974064156029
H           27.26055351214656       18.90468232075431       22.36688608489582
C           24.17062249421553       15.19040728822469       20.84345030117311
H           23.38601026858710       14.51906624906452       20.47904331955002
H           24.86822746590234       15.32222332737152       20.01099128539800
C           24.90728326386354       14.52715369547180       22.01227006281927
H           25.64775807980775       15.21563564621112       22.42866576809755
H           24.19877179029465       14.27784594563457       22.80787953902461
C           25.61622623566770       13.26096563222772       21.53635767882469
H           26.13588256141247       12.78676903861088       22.36888638264557
H           24.89514880322549       12.55187911144102       21.12766952734153
H           26.34227656986932       13.50017427422175       20.75914640360363
C           24.89004064627203       11.65223083809930       16.71825511636017
H           25.27752608881245       12.40895496710192       17.40839783103708
H           25.57517520982315       10.79963704056843       16.74923226425366
C           24.87214685707825       12.23586871659041       15.30083940004482
H           24.49269004620764       11.49409253694533       14.59336818440401
H           24.19516729632015       13.09675946769767       15.26866077914646
C           26.27212633716875       12.67371230640962       14.88727191111078
H           26.25638041966783       13.02363846146214       13.85544076683739
H           26.62247220657660       13.48084042350024       15.53113508883248
H           26.97160095861746       11.83987499360591       14.95766782303250
C           22.82145015699236        9.64894694110178       16.30271349977143
H           22.75841303399076        9.93605190392109       15.24805646774434
H           23.62995189429639        8.91653398778141       16.38734637464966
C           21.49346529982843        9.01023449686996       16.72155964279879
H           20.68837316204402        9.74609752466692       16.62060477465575
H           21.53429634501469        8.70806255341586       17.77332346713250
C           21.19147936757591        7.78943916647672       15.85581319665137
H           20.25967262867470        7.32252746571190       16.17456963110203
H           21.09943770459738        8.08049541748323       14.80934594659609
H           21.99364010345239        7.05551269898496       15.94111545971072
C           23.48065996263423       10.57104475946382       19.01299478098551
H           23.76429687378856       11.44446116265038       19.60836718648835
H           22.51702916328293       10.23263474399457       19.40439223842007
C           24.51784649852721        9.46131139844765       19.21671707091110
H           24.25627250090839        8.58891054098156       18.61108445372216
H           25.50332830204387        9.80972134486741       18.89543573934458
C           24.57716422066037        9.05449991769013       20.68770639828883
H           25.31787705743676        8.26718665346944       20.82774161416356
H           24.85308941177883        9.90711586544342       21.30937709478369
H           23.60666460100817        8.68310369765473       21.02026391457317
C           25.23724411158367       12.58570415036941       10.12857811638654
H           25.50485517740496       13.27372547126225        9.32096002050646
H           24.58389472871370       11.81459620714044        9.71048803377261
C           27.27991639911217       21.13578585185520       12.49211961583356
H           28.23077503841217       21.66918463713628       12.48582077141590
H           27.05167596470882       20.81811770017054       11.47417100683030
H           26.49832555401653       21.81757386297430       12.82836881997684
C           24.74003013317587       17.85221926738298       21.90244545598730
H           24.33848446686183       18.85518309728692       22.07790270563715
H           25.06448883706419       17.46471322650219       22.87229831406177
C           25.93619578520747       17.94860897141731       20.94595216679382
H           25.57667028946166       18.13027073930976       19.92810557995609
H           26.47685013535471       16.99838580395016       20.93491993095936
C           22.22867564180405       16.51670448541991       22.57113902748833
H           21.55094148269859       15.70882178737926       22.27970601857250
H           22.77162586175810       16.18185994171416       23.45998826711726
C           21.39746611031535       17.75925012619013       22.90981945404165
H           20.81675636086905       18.04951374517433       22.02763654666490
H           22.06056439745717       18.59441135388164       23.15891995573500
C           20.45630043399544       17.48167034953386       24.07864263815638
H           19.89497244703576       18.38240791486806       24.32654664548442
H           19.75103936914584       16.69208164041385       23.81978476735993
H           21.02225759742970       17.17205034337651       24.95797197232615
Au          19.51811202607990       19.35361370163573       15.78144775525105
Au          17.17505265071746       17.76081648277561       16.33566140399591
Au          17.64893135885319       15.34452770598880       17.81190274538829
Au          16.57436895209806       15.13323413063691       15.18898443924714
Au          17.87452813893756       17.49868696109995       13.47826034213100
Au          19.13157626524568       14.93683959438095       13.31836423102496
Au          19.06481312649862       13.07632523593443       18.66295252368209
Au          16.61226839411467       17.60909480215537       19.07959211174274
Au          14.91709813452015       16.25756433720661       17.22961210604376
Au          17.76782454650148       20.19586503848635       17.71598085255888
Au          16.86820817561695       19.90688145405466       14.49766293929708
Au          21.87575427089160       20.28819843978801       14.74268613682051
Au          15.18625073756872       17.58680401206538       14.24680543478017
Au          16.17614571487390       15.21564822585998       12.51733595663994
Au          19.63034885092271       16.95793322166418       11.43815501125362
Au          16.99836008791276       12.86913745719653       13.83768521933298
Cl          12.73979795172528       17.62131686444704       14.22396760566127
Cl          20.69147893818428       17.55582239075149        9.31267016656389
Cl          23.67338388438633       21.85673032843724       14.25200845574700
Cl          16.28979703168244       21.90827864935492       18.66977856232524
P           18.82356552480570       11.64412273696281       20.55607873752599
P           17.13737690641583       10.57693315395485       13.25231496338121
P           15.71065699166073       18.80610755376168       20.92348948911784
P           12.77759050964242       15.16953096189453       17.01776529720384
P           15.25508195389263       16.15714464121356       10.53028429735691
P           15.43692142133377       21.82381533926281       14.41511660066727
C           17.02803051025045       11.29776590884879       20.78641964270261
H           16.85536885314702       10.70946115897287       21.69287800303615
H           16.68710428327915       10.69608690800953       19.93720192505000
C           16.19033604416831       12.58139253222071       20.84486374298596
H           16.49295382030375       13.19630147533801       21.69658343500835
H           16.36689710441691       13.17029467038800       19.93808766974693
C           14.70747503089641       12.24396118608492       20.94506186143532
H           14.11901183893266       13.16137238484615       20.95649322782594
H           14.50063429352715       11.68587687506436       21.85880455635947
H           14.39993718634562       11.64251288128361       20.08961205643643
C           19.35458385793169       12.24730135266600       22.21994278091614
H           19.26127094118629       11.46295040591932       22.97615822390936
H           18.64623189493701       13.03758840862642       22.49088179350975
C           20.76004453495588       12.85635038462804       22.26316081423372
H           20.81754820031193       13.51110148978091       23.13861536784363
H           20.91874934747412       13.47984314083148       21.37573816871154
C           21.86519942139966       11.81002418683385       22.35552871627100
H           22.83136959626853       12.29887699964905       22.47906120763346
H           21.90316726490595       11.20207549602886       21.45221430888896
H           21.70156659431047       11.15143619901813       23.20937771727806
C           19.54135021517720        9.96136512271499       20.28076042520365
H           20.60225742581481       10.07679763871480       20.04367299287950
H           19.06966505999184        9.56816555564739       19.37395020758521
C           19.38729919785944        8.94021531413096       21.41220447108574
H           19.86126290310840        9.31780150365790       22.32289340397581
H           18.32712405941374        8.77984302679446       21.62740502333885
C           20.03485695607476        7.61441237755515       21.01752711157666
H           19.92184890705257        6.88888831082281       21.82305837923812
H           21.09906586295589        7.75404014397784       20.82100631883776
H           19.56646109175231        7.21331070911933       20.11799553455129
C           15.94173192220614       10.15279248846829       11.90787882105769
H           14.93910320729348       10.12341819839357       12.34514474609269
H           16.13771876332456        9.16139917567183       11.49016871448776
C           15.97161871198461       11.20302511416318       10.79214585348932
H           16.95354215878912       11.20081564059485       10.30965350334185
H           15.82361508398311       12.19732534050227       11.22822010595221
C           14.88877908930534       10.94463346732766        9.74892403070186
H           14.93603665199418       11.70494867540315        8.96875173658384
H           13.90053956288571       10.97861932724524       10.20915480599931
H           15.02471741836150        9.96518803981739        9.28946865796418
C           18.79270095315160       10.09040261406403       12.60515736530796
H           19.53454485791611       10.36221941931911       13.36221298472053
H           19.00139796369519       10.72986457040040       11.74195826928603
C           18.99423330447532        8.62295886648970       12.21058526307633
H           18.87740109358180        7.98427985666609       13.09106812069753
H           18.23892702539849        8.32258406263394       11.47769634245061
C           20.38741306506352        8.42586735971093       11.61686073010380
H           20.54528199472254        7.37425848405457       11.37715844744861
H           21.15217862603585        8.74566331127476       12.32467922692459
H           20.49840531022874        9.01358021897398       10.70474983685206
C           16.73125251143087        9.37448898386649       14.59250264252878
H           16.64073904601844        8.35843734180775       14.19730389868303
H           15.75584329013576        9.65224049876611       15.00544963741638
C           17.77009009257558        9.40296410871520       15.71739486701211
H           17.89414870319390       10.43253329812567       16.07217709227492
H           18.73795967321734        9.07143173311469       15.33251403285461
C           17.34426214493126        8.51852597709468       16.88434899816351
H           18.10961265641475        8.53816974969881       17.66150723064186
H           17.20896524265865        7.48783339944300       16.55511145780042
H           16.40731311801555        8.87941820659593       17.30823104471793
C           15.31261340699455       17.69922818734333       22.33906288527351
H           14.78431369994078       18.23890620348015       23.13048018927395
H           16.25899397656176       17.34770793997692       22.76208323855603
C           14.49441231886571       16.48054405719670       21.89849389211753
H           13.51527171534306       16.80254173655779       21.52967903802404
H           15.01022483492107       15.97688513048471       21.07367856202105
C           14.31758213888249       15.50263774598205       23.05623079859890
H           13.69571816910762       14.66336059307650       22.74455448318112
H           13.83853106411060       15.99445220371921       23.90373166904567
H           15.28818620935232       15.12190804783405       23.37439421773355
C           14.13951395597482       19.64777717511529       20.45571510850662
H           13.47290335326352       18.89441318585277       20.02523816516450
H           14.38321032109324       20.34733258469762       19.64974674776424
C           12.13987443836161       21.05354721386675       21.01721880521790
H           11.61968855119328       21.59114663889568       21.81017969128816
H           11.46784401216210       20.29663093016223       20.61035260370665
H           12.39000750355342       21.75810753052088       20.22357333580343
C           16.74506372107156       20.13683831374524       21.67979439874154
H           16.37882725537279       20.36694237298382       22.68476546586146
H           16.65008904463725       21.04509462626833       21.07814721030327
C           18.22015853264921       19.73371686785900       21.75403159459616
H           18.32049877696710       18.75808376384658       22.23905113423204
H           18.61799434631954       19.63665722678084       20.73738505244812
C           19.03191751262033       20.77346663132310       22.51975009940560
H           20.08952440188700       20.50958243010068       22.50379227450573
H           18.70277435777234       20.82706890979025       23.55789161126272
H           18.91139191014543       21.75921281124140       22.06883077826812
C           12.61742055075826       13.80700788536885       18.25101768943758
H           12.82765964248340       14.21206209872236       19.24463546648348
H           13.42089786798065       13.09304209141479       18.04256264009192
C           11.27878580177527       13.05911861973205       18.27514109138412
H           11.02108291581625       12.71789286466622       17.26842794667799
H           10.48267721017473       13.72941774780779       18.61347440018658
C           11.30371406008477       16.27028358975892       17.19954947002948
H           10.37956216636288       15.68850109780072       17.25809524463028
H           11.25732276317337       16.85561293757674       16.27506092324610
C           11.38594724380738       17.24907460722988       18.37637100348578
H           12.39321297028030       17.67756699771144       18.41958542982429
H           10.68606952830342       18.06861947433452       18.18457284341499
C           11.04738641102267       16.62562735895821       19.72705967632385
H           11.01471736218047       17.40274698038820       20.49164004742723
H           11.79729900028922       15.89176108457950       20.02031182621067
H           10.07449562784626       16.13389803279771       19.69270661220997
C           12.44164809084880       14.33679035530480       15.39752603586857
H           12.64294305131265       15.06272158134764       14.60477477132830
H           11.38399320466618       14.06742209060403       15.32128658703014
C           13.30647718170657       13.09311471529324       15.18717413545056
H           13.00030623536785       12.29801864639660       15.87053511862929
H           14.34934350934965       13.33246537924419       15.41784688101231
C           13.22630204596313       12.58107473539294       13.75423496114851
H           13.77231972982030       11.64103385768204       13.66865436391367
H           13.67315879383997       13.30115611852736       13.06748522059639
H           12.19086509727183       12.41104267432852       13.45815505575182
C           11.75769209932874       13.91711273029455       10.34197461353441
H           10.91091525251465       13.87908095981281       11.02717498333421
H           12.26973833698948       12.95414336172504       10.36869341120123
H           11.38257839296184       14.08287070254997        9.33150368395323
C           14.47247237540930       17.79721905325326       10.85493108671408
H           15.25707689075781       18.46856585677503       11.21934466279610
H           13.77486377060028       17.66539615069357       11.68738650012362
C           13.73581556271130       18.46045821954650        9.68609920206488
H           12.99537798416999       17.77195582917929        9.26967077968190
H           14.44433719628093       18.70980833762415        8.89051210925219
C           13.02681135116485       19.72660889192719       10.16201633164800
H           12.50715495275835       20.20080193081654        9.32948551091960
H           13.74785365468753       20.43571366103925       10.57073434481442
H           12.30075303150586       19.48735449790460       10.93920606306396
C           13.75300019898452       21.33536889713643       14.98014761597160
H           13.36550924437502       20.57864151672407       14.29001159388979
H           13.06786739330639       22.18796393160764       14.94916881935648
C           13.77090444847635       20.75173664015184       16.39756599158162
H           14.15038786099012       21.49350249244402       17.10503429151061
H           14.44786525682734       19.89083062335009       16.42973267813497
C           12.37092061773388       20.31392102014875       16.81114732161440
H           12.38666805425845       19.96398946178530       17.84297646523095
H           12.02055655838715       19.50680264471209       16.16728194273739
H           11.67145992678467       21.14777098969473       16.74076112741857
C           15.82160185041307       23.33864693903795       15.39567725016342
H           15.88464940476423       23.05152682631961       16.45033038413087
H           15.01309158256535       24.07105172896379       15.31105806197959
C           17.14957791885016       23.97737156608148       14.97681552176763
H           17.95467521840991       23.24150793702755       15.07772642811147
H           17.10872012752343       24.27957569088112       13.92506199094459
C           17.45159262980964       25.19814437187196       15.84258345538398
H           18.38339090225008       25.66506114446951       15.52380885281477
H           17.54366593654760       24.90706385913235       16.88904108422727
H           16.64943121008766       25.93207465655417       15.75732209309874
C           15.16238914362098       22.41654263438861       12.68538693432393
H           14.87874998550724       21.54312673253505       12.09001403433789
H           16.12602354214409       22.75494919334366       12.29399445031885
C           14.12520659109258       23.52628072552112       12.48167460372735
H           14.38677972009800       24.39867605279192       13.08731568759200
H           13.13972107429395       23.17787149440274       12.80294613294630
C           14.06590607479039       23.93309859454471       11.01068735433248
H           13.32519669495722       24.72041432720668       10.87064886906488
H           13.78998560405679       23.08048515683111       10.38901092524878
H           15.03641106390746       24.30449321893775       10.67814363416798
C           13.40581888835468       20.40191373172623       21.56981721780824
H           13.13820885489296       19.71389775442107       22.37744039657659
H           14.05917800731887       21.17301811717195       21.98789841359903
C           11.36324601817476       11.85181573879364       19.20629981592452
H           10.41240799248482       11.31838006531248       19.21260268563294
H           11.59146668849390       12.16951310082171       20.22424350926974
H           12.14486506832236       11.17005117796771       18.87006883995049
C           13.90308420809609       15.13539313633016        9.79593110108145
H           14.30463224683561       14.13242621925283        9.62049414378634
H           13.57863715635519       15.52288555891214        8.82606948219092
C           12.70690901062720       15.03902012485790       10.75241436273370
H           13.06642632447997       14.85740450738339       11.77027284048550
H           12.16623832741146       15.98923457389597       10.76340249510703
C           16.41444126411930       16.47092073011163        9.12724507802806
H           17.09218258174014       17.27879528926647        9.41868403783107
H           15.87149841777819       16.80577288513437        8.23839470272409
C           17.24564052244030       15.22836791188671        8.78856599076424
H           17.82635374977534       14.93810676007391        9.67074752513756
H           16.58253563554007       14.39320906414913        8.53947544460062
C           18.18679918745248       15.50593489704624        7.61973456880507
H           18.74812485698590       14.60519435022940        7.37183606400842
H           18.89206175109538       16.29552627700564        7.87858004409636
H           17.62083562432195       15.81554600616151        6.74040640820850
