304
 energy: -443.717688836214 gnorm: 0.000207416676 xtb: 6.5.1 (579679a)
Au           7.84160955090232       -0.06181143718985       13.32120719029777
Au           8.88757624514686        2.44562755407363       14.69289823746010
Au          11.69505111710335        2.55875122857813       13.21717324532834
Au          12.37333307998481        0.32624036433977       11.40788355212885
Au           9.93116375232584       -1.30196480068171       11.73015032950860
Au           9.30315599342467        1.61729804997847       11.62726025314352
Au           7.59527805600222       -2.86008454615287       12.33572907297765
Au           6.38440541372741        1.04472250235328       15.29851759249299
Au          11.09127803160763        4.19249713224729       15.41872016649735
Au          14.47698715179868        1.86781998068172       12.33000574003990
Au          12.02124197463715       -2.12169224667734       10.01892773872225
Au           9.44449937739920        4.21722707438020       12.30759079440185
Au           6.87008605656049        2.77293789279199       12.96552443519871
Au           7.58783307879346       -0.33139203972498       10.52234154959883
Au          10.44221361925009        0.23135773302236        9.35418226587651
Au          11.24080329653515        3.01893162225359       10.39278867876993
Cl          16.17755334788876        3.64619520733600       12.23699614693754
Cl           9.68192296455515        6.37923922330813       13.40061680995839
Cl           5.83829330989296       -0.04819199374982        8.82366928838884
Cl          12.50028464507247       -3.45778215174880        8.03912377383690
P           10.42593356547233        6.28907104339709       16.40864921381360
P            4.68739932829904        1.68476640128677       16.84035562219353
P            5.34521624330313        3.47051309441903       11.25524443473293
P            5.48463712643478       -3.69401119531690       11.61574603803902
P            9.88108980485726       -0.02088717303306        7.05287829091027
P           12.83154637308668        4.40274116758314        9.25882777015156
C           11.36239775375433        7.78729452522644       15.85111238978569
H           12.42114582622711        7.60952356518426       16.06041683688722
H           11.26530455249635        7.86129845157390       14.76563420374587
C           10.93980039332396        9.11290706750750       16.48410245345181
H           11.58271362861151        9.90895855825125       16.10610066839670
H            9.90867245136474        9.35509625988959       16.22873621667715
H           11.03253297507681        9.08395489434771       17.56974543107287
C           10.78849036513251        6.21005959690657       18.22504656456336
H           10.57375797707908        7.16235596656968       18.71814051649822
H           10.12186555780238        5.46447513344362       18.66971990842406
C           12.23310871793334        5.80406034115670       18.50837174333673
H           12.37909864436106        5.66997489508213       19.58044569214931
H           12.46868773136998        4.86434598551565       18.00550548532042
H           12.93323869909327        6.56366115506825       18.15914740692419
C            8.64668512446586        6.81113092965423       16.41678071625298
H            8.48045694233342        7.50754516709792       17.24387997695156
H            8.42594522115221        7.33972758596742       15.48719546246672
C            7.69088311704600        5.63058381981793       16.55796619347079
H            6.66200718627147        5.99273054320423       16.56279311342544
H            7.80888990377550        4.94160764820173       15.72014652338511
H            7.87106019300719        5.08452040584461       17.48313074596243
C            5.24919578551915        2.36788546746458       18.46405675503652
H            5.89590049111392        3.22751293329811       18.26296893374328
H            4.39876822636781        2.73054427034072       19.04906283663185
C            6.03991812040780        1.34716425340421       19.28132504360960
H            6.52351691932055        1.85074002490410       20.11773403924080
H            5.39024606097677        0.56228227323334       19.66821496499672
H            6.81641200418983        0.88508816789563       18.66982545953877
C            3.51152897704584        2.96984949097315       16.20979959467688
H            2.94117625710564        2.53399127938470       15.38454178259014
H            2.79362576558847        3.24745767137535       16.98745830342716
C            4.23268925931804        4.21935830837268       15.70779402207210
H            3.51474766372321        4.91415565341628       15.27097183324233
H            4.74997099624353        4.72297751012476       16.52368725981433
H            4.96770532212421        3.95747554207390       14.94489324805419
C            3.56468661707748        0.28543474692495       17.29171072249934
H            4.12810976702776       -0.41861657437069       17.91068504789415
H            2.72150211695221        0.64165614602035       17.89148739375046
C            3.04849823117462       -0.45704337170866       16.05832807243601
H            2.43521966796027       -1.30306091728349       16.36848198503543
H            2.44645728424243        0.19665461613475       15.42682502191734
H            3.88051015892353       -0.83820575314476       15.46640289602610
C            4.71788678429422        5.18197326959704       11.57087380397168
H            4.12532746470629        5.55230378561628       10.72956818865988
H            4.05303491363738        5.14487147828719       12.43906559619214
C            5.86422331084181        6.15059076920712       11.86609061575883
H            5.46648493330037        7.14426761924981       12.07355488967385
H            6.43244315318685        5.81748158955977       12.73493987658510
H            6.54515870838598        6.22045338234785       11.01797567229369
C            6.12756484458862        3.53887630138845        9.58348069803497
H            7.06056600023077        4.10453168392254        9.66850296974952
H            6.40606030465716        2.51143928358685        9.32915293702839
C            5.27818221873538        4.11674619406424        8.45149233403762
H            5.85207322098536        4.08824418154717        7.52473419865493
H            4.36954329058201        3.53286097048456        8.30943438939948
H            5.00265511365247        5.15206775890857        8.65071406778446
C            3.81945524752203        2.46324258184100       10.98035385024074
H            3.13119434772581        2.96818499998196       10.29684870313117
H            4.11921764044199        1.52379229987847       10.50472641429193
C            3.10364914867065        2.16338647352145       12.29700452684104
H            2.24201449246220        1.52108113382944       12.11419208351797
H            3.77568238841975        1.65512999260006       12.99010710183167
H            2.75369181438565        3.08184410675004       12.76965503441199
C            3.96874645176248       -2.76431162602845       12.11491954595922
H            3.09447162071955       -3.16600741531117       11.59449824427174
H            3.81415598433574       -2.93194292194836       13.18441110665976
C            4.07507557510615       -1.26508418739546       11.85456500032913
H            3.15993332168455       -0.77561830455193       12.18889458785828
H            4.91473135601718       -0.83915203096403       12.40656931004287
H            4.21773069317552       -1.05321251420745       10.79557440598776
C            5.12373958884035       -5.40325487373564       12.21243047813169
H            4.92543177620820       -5.33275075562718       13.28627309979909
H            4.22184947736609       -5.80252021403995       11.74025002863106
C            6.29652555739041       -6.35417768245366       11.98524256848231
H            6.06472047936360       -7.33503373171329       12.40091475667458
H            6.50788887117803       -6.46932483478713       10.92187027645818
H            7.19283068937194       -5.97330662149303       12.47661396403854
C            5.43154190672869       -3.74903829763021        9.76894886930544
H            5.52592560957767       -2.71836992857068        9.41109759077261
H            6.32834170345239       -4.27476678266779        9.42744297872078
C            4.19776280221825       -4.38939388813023        9.13338469561259
H            4.28926321446592       -4.33661295658414        8.04800923977377
H            4.10503942903093       -5.43677225570108        9.42016759727506
H            3.28839890915618       -3.86553766816702        9.42627005538833
C            9.26103933183291        1.46249254439619        6.13591877283993
H           10.09678546889307        2.14747625538684        5.96558522195513
H            8.87700533546900        1.16778444638202        5.15484357514493
C            8.17008030015239        2.18795928177091        6.92243264839290
H            7.83343725578981        3.06371722697934        6.36684226348410
H            7.31503341574092        1.53583586268312        7.09935426343536
H            8.55562832489056        2.51596152822268        7.88901757862841
C            8.57219052972699       -1.28719415902953        6.75828484464950
H            7.60572125947962       -0.86136168420663        7.04551352661910
H            8.51881668979396       -1.53307631595234        5.69326999690044
C            8.80864272996778       -2.55897466748615        7.57079165154304
H            8.01920911822613       -3.27931708208433        7.35542583006314
H            9.77175338861261       -3.01112963971582        7.33550383312523
H            8.78744538959288       -2.33570084650589        8.63859280340364
C           11.31838584278930       -0.61242253118569        6.05707068752916
H           11.58204554097049       -1.61661704331470        6.40515023785275
H           11.05474612110895       -0.69037039438768        4.99827964055784
C           12.53425342529013        0.29806475260514        6.22647920587676
H           13.38647672195958       -0.11941536209109        5.69006551671398
H           12.33772474504336        1.29848880437399        5.83877484119970
H           12.79776860663164        0.38504170154937        7.28149935789465
C           11.95158255737032        5.62788495557306        8.18649502884837
H           11.47640638639925        6.36810002398629        8.83677004988161
H           12.65919793127865        6.16441824241601        7.54753884094541
C           10.87758472209084        4.96289457630046        7.32643327895412
H           10.35841524694544        5.71258500226448        6.72883082298107
H           11.31652127801453        4.22602651732005        6.65285163180213
H           10.14747126278532        4.45712293790285        7.95956886901533
C           14.05605734084166        3.63181621446978        8.10024763060912
H           13.51127391241318        3.23684999018728        7.23726184119630
H           14.75231009194283        4.38870793734778        7.72684062443268
C           14.83859510781581        2.49613712175741        8.75785243232804
H           15.50820544686552        2.03705548443258        8.02976269269875
H           15.43451591489789        2.86423789300878        9.59178641601125
H           14.15823753808327        1.72991202564935        9.13240603179748
C           13.86117592416034        5.47896506251748       10.35125283813718
H           14.73727844712355        4.91599395868333       10.68614488927778
H           14.22804039325124        6.34204461315480        9.78677867335792
C           13.09269268601481        5.95589196479154       11.58416376425741
H           13.72166409887468        6.62590492363345       12.17061140663633
H           12.17886399404154        6.48422042234547       11.31241909561863
H           12.82220632828210        5.10602131998045       12.21172945474221
Au          13.40360566411912        0.06206496470855       14.20115919041008
Au          12.35724376295408       -2.44570271387339       12.82932950149747
Au           9.55002650428515       -2.55870256159630       14.30523031088211
Au           8.87165933471714       -0.32629814506606       16.11446023669394
Au          11.31411308787075        1.30188442480062       15.79241029019679
Au          11.94196133056577       -1.61737568526567       15.89515289732411
Au          13.64979258235721        2.86003408985027       15.18669729675137
Au          14.86090579421282       -1.04465864515965       12.22380934978319
Au          10.15383919122419       -4.19249450295360       12.10378225676680
Au           6.76806918481699       -1.86791071916476       15.19253327398996
Au           9.22385048555026        2.12173406831689       17.50364827226328
Au          11.80064820022465       -4.21728098161134       15.21485161848505
Au          14.37496173440697       -2.77286412243632       14.55704790968470
Au          13.65714843552853        0.33134417168016       16.99996226832803
Au          10.80286253586518       -0.23127503251482       18.16839516946052
Au          10.00418017109554       -3.01907133580607       17.12980957801488
Cl           5.06746123158283       -3.64625138321275       15.28543263058246
Cl          11.56314820050051       -6.37920234210655       14.12189571953277
Cl          15.40678213346822        0.04820892436229       18.69879107516232
Cl           8.74480845267352        3.45779356557114       19.48334733218148
P           10.81915152240163       -6.28905737247532       11.11381805556215
P           16.55768627571683       -1.68476902440711       10.68208666693272
P           15.89987729446858       -3.47053169703855       16.26721104175369
P           15.76045420730351        3.69401055327429       15.90670210182256
P           11.36399821793848        0.02089106795030       20.46957383916673
P            8.41353786469829       -4.40274013863301       18.26361326927274
C            9.88269218880366       -7.78729946985403       11.67131756073320
H            8.82394355680708       -7.60952480232855       11.46201981970603
H            9.97978442260645       -7.86132275009130       12.75679373387464
C           10.30528734656813       -9.11290521204670       11.03831092903681
H            9.66237136691653       -9.90896213657835       11.41629689449012
H           11.33641347055120       -9.35510065518672       11.29367862520582
H           10.21255999514854       -9.08393616124167        9.95266814014292
C           10.45659279706216       -6.21004051273905        9.29742062073113
H           10.67132813016026       -7.16233040072873        8.80431519181807
H           11.12321868988952       -5.46445075471459        8.85275831229767
C            9.01197546472005       -5.80403863622450        9.01409201768100
H            8.86598830878918       -5.66995265633116        7.94201778459057
H            8.77639609296643       -4.86432356551125        9.51695647138101
H            8.31184246573977       -6.56363761298358        9.36331431127206
C           12.59839738715930       -6.81113023725448       11.10567624592450
H           12.76462569496145       -7.50754965347419       10.27858102136558
H           12.81914380174015       -7.33972116272890       12.03526300829351
C           13.55419550698826       -5.63058090872306       10.96448135643550
H           14.58307242600002       -5.99272529702758       10.95965912138450
H           13.43618695182938       -4.94159436169789       11.80229285383532
H           13.37401875060683       -5.08452842889560       10.03931037086091
C           15.99589575386826       -2.36789174968752        9.05838086278777
H           15.34918008071619       -3.22751060253462        9.25947183074327
H           16.84631869981371       -2.73056449169061        8.47337606303384
C           15.20518473555375       -1.34716256052692        8.24111062144014
H           14.72158242525969       -1.85073389336441        7.40470098401812
H           15.85486293143321       -0.56228505343694        7.85422196798437
H           14.42869402072992       -0.88508130447300        8.85261001615041
C           17.73355868188843       -2.96985087695311       11.31265080388399
H           18.30389815474809       -2.53399542477340       12.13791971836881
H           18.45147589548428       -3.24745222920768       10.53500203497451
C           17.01239741153171       -4.21936670756559       11.81463772228768
H           17.73033730311145       -4.91416358351335       12.25146347541291
H           16.49512465303341       -4.72298292831515       10.99873702754644
H           16.27737477433385       -3.95749227434993       12.57753323776618
C           17.68040141886933       -0.28543295479181       10.23073541060949
H           17.11697976768150        0.41862427519861        9.61176568507004
H           18.52358557496405       -0.64164924392506        9.63095405237769
C           18.19659221416269        0.45703670653618       11.46412273034537
H           18.80986458193463        1.30305982081106       11.15396925848583
H           18.79864521791732       -0.19666075354854       12.09561541380662
H           17.36457802375651        0.83818767330557       12.05605392323153
C           16.52720400942854       -5.18198781073766       15.95157630698422
H           17.11976799175826       -5.55231562806252       16.79287908098913
H           17.19204809804250       -5.14488478806274       15.08337876537327
C           15.38086315430148       -6.15060219886567       15.65636842410170
H           15.77859585771958       -7.14428089749442       15.44890481438337
H           14.81263905967181       -5.81749565627337       14.78752118770392
H           14.69993172964363       -6.22045720850203       16.50448724881970
C           15.11751133239997       -3.53887581624689       17.93896588761474
H           14.18451125556783       -4.10453327754869       17.85394666861805
H           14.83901507655204       -2.51143795093417       18.19328933304704
C           15.96689870742125       -4.11673898704674       19.07095319277516
H           15.39300468208635       -4.08824662636050       19.99770955236903
H           16.87553071720034       -3.53284364639900       19.21301490760042
H           16.24243882367871       -5.15205647337056       18.87172840062637
C           17.42562913795830       -2.46324809504486       16.54208860963735
H           18.11388994089113       -2.96818971555111       17.22559368780599
H           17.12586375662027       -1.52379912965429       17.01771648713170
C           18.14143734128849       -2.16338796425869       15.22544057677732
H           19.00307243066368       -1.52108415149889       15.40825647087581
H           17.46940537322029       -1.65512896826096       14.53233905363025
H           18.49139339571376       -3.08184475598038       14.75278769429258
C           17.27634319390710        2.76430743540099       15.40753162244231
H           18.15061507267574        3.16600647716831       15.92795464524569
H           17.43093996932918        2.93193412558968       14.33804115759160
C           17.17001075659449        1.26508065108176       15.66788661377125
H           18.08515209619739        0.77561429670367       15.33355516382326
H           16.33035171466350        0.83914862917244       15.11588601490585
H           17.02735931822295        1.05321277904544       16.72687815292879
C           16.12133799860510        5.40325702365834       15.31001833968051
H           16.31964945012019        5.33275814128183       14.23617656600458
H           17.02322564473452        5.80252149018719       15.78220314514748
C           14.94854710489057        6.35417369609929       15.53720656430987
H           15.18034868367486        7.33503230404279       15.12153899566576
H           14.73718065182472        6.46931481608497       16.60057884230422
H           14.05224501363355        5.97330095135592       15.04583100234663
C           15.81353564379521        3.74903483516531       17.75350085765345
H           15.71915848146712        2.71836558517861       18.11135104529495
H           14.91673288566858        4.27475767955470       18.09500807210279
C           17.04731192234037        4.38939495296457       18.38906555861795
H           16.95580320410188        4.33661735026013       19.47444047612005
H           17.14003688819105        5.43677248169857       18.10228023524344
H           17.95667781537693        3.86553747844705       18.09618854338569
C           11.98405242773462       -1.46248456634886       21.38653581454145
H           11.14830662839825       -2.14746796126372       21.55687207012971
H           12.36808500228247       -1.16776918575440       22.36760923678796
C           13.07501306099126       -2.18795223842709       20.60002519163173
H           13.41164913716018       -3.06371256180639       21.15561594925540
H           13.93006312959347       -1.53583106339282       20.42311121688598
H           12.68947028515787       -2.51595056312999       19.63343669953536
C           12.67289173247028        1.28720507907827       20.76415951195349
H           13.63936273658402        0.86137413694285       20.47693515529785
H           12.72626132688927        1.53309136901166       21.82917352095548
C           12.43643323280635        2.55898107491636       19.95164815860159
H           13.22586966299354        3.27932377307169       20.16700286752858
H           11.47332515547900        3.01113824811700       20.18694189597082
H           12.45761904660938        2.33570122486808       18.88384838890232
C            9.92669286889875        0.61242424469633       21.46536788062105
H            9.66303047013113        1.61661763247190       21.11728635624370
H           10.19032895659050        0.69037494365559       22.52415963947653
C            8.71083147118654       -0.29807055544045       21.29595619216723
H            7.85860078886272        0.11941322457817       21.83235543838264
H            8.90735915996445       -1.29848925576736       21.68367500901348
H            8.44733055233624       -0.38506008054641       20.24093328709320
C            9.29350825325469       -5.62788244760131       19.33594000050260
H            9.76868448002715       -6.36809715730518       18.68566417458511
H            8.58589566768884       -6.16441658844397       19.97489899880728
C           10.36750462713606       -4.96288149556466       20.19599483013756
H           10.88668104997104       -5.71256925948281       20.79359492790336
H            9.92856717122621       -4.22601700792777       20.86958011699768
H           11.09760952525319       -4.45710486299916       19.56285262175576
C            7.18903084208524       -3.63181204996908       19.42219543816906
H            7.73381987849456       -3.23684534303848       20.28517753589653
H            6.49278324601244       -4.38870572913376       19.79560795698788
C            6.40649152878043       -2.49613538915242       18.76458607064829
H            5.73687951605264       -2.03705752468396       19.49267671514123
H            5.81057378328757       -2.86423515354358       17.93064915291265
H            7.08684689203707       -1.72990704754781       18.39003444170623
C            7.38391218531187       -5.47897090229345       17.17119296808123
H            6.50780712455867       -4.91600119273502       16.83630927620345
H            7.01705091647040       -6.34205035300872       17.73566919022626
C            8.15239208425145       -5.95588938300983       15.93827679286507
H            7.52341983164992       -6.62590352032406       15.35183125110868
H            9.06622406053726       -6.48421512923458       16.21001535559587
H            8.42287091530775       -5.10601586481397       15.31071169423103
