430
 energy: -697.071990892509 gnorm: 0.000717252157 xtb: 6.5.1 (579679a)
Au          10.69618843806786       14.84698081269907        8.14885090007431
Au          12.45950635294275       11.65493295287535        4.98647260782184
Au          12.45187459185408       14.68857276001061        4.19436874340979
Au          13.78517307331964        8.68917236931585        9.78964081392247
Au          11.46823346292719        9.29601631581468        8.40220004688511
Au          13.33393214433282       15.63386542620256        6.70634376816868
Au          10.82444782204463       16.57954922698209        5.62125638455475
Au          13.97564675042885       10.58925748995422        7.20112472685244
Au          12.02977444176152       13.60408400600137       10.30313556642452
Au           9.93310061938442       10.88043941972023        6.35832615517654
Au          17.67555275568196       14.32196268188338        7.02840930510184
Au          16.52021211758771       11.95040559659313        8.51702061437270
Au          14.71874170248100       15.80156481585112       12.01044396363593
Au          16.22186294490115       13.33294823802445       11.07637833439366
Au          17.49499387620099       15.90930913673005       10.25220320305428
Au          13.78420234895467        6.90115272453867        7.30128315928850
Au           9.26801223071502        8.99486628318392       10.55649084988160
Au          11.56602876057770       18.58521313060719        8.63999684502744
Au           8.14348813124304       16.93304071878714        6.84982403233782
Au          10.74481592699714       13.19901136962229        2.34854996460512
Au          15.28890442438533       16.93813481617457        4.72874205221008
Au           8.64670644059259       16.20691314119106        3.51379729692110
Au          17.18792216171657        9.13453555132189        8.85928147019242
Au          11.75624124733836        6.35021891054609        9.46680938060974
Au          14.28620153221301       11.68942299546141       13.18650845497308
Au          14.75912053897534       14.09952719728343        8.85666655785331
Au          12.30455790261975       12.71542270826593        7.58265414829087
Au          14.26118101941880       11.50544274205642       10.15965370756687
Au          11.77270568023043       10.41255874941314       10.84914984772208
Au          14.69186025536153       13.02135675405932        5.96469050195387
Au          13.24014866726327       16.37620909176458        9.45656994878755
Au           9.95339414181890       12.21662843562526        9.05553070945962
Au          10.10098882738599       13.91258101280288        5.25547415351346
Au          15.71947739679410       16.50816006040060        7.94782832072806
S           15.37316922002752        8.56714510543995        6.76059872242453
S           14.38258596760088       15.62920918021807        2.96316235221196
S           18.80167059877634       14.32547105528529        9.09808432539771
S           12.59306925909473        4.91936874009984        7.74269125935110
S           10.38602935520227        7.04985405866502       11.29252401011383
S            9.73786139814353       15.21110241069761        1.65098961823976
S           16.00035613835852        7.85628421600342       10.48096042359088
S           11.24443286457857       18.93610649804583        6.30955429357334
S           12.03100311013175       10.94657881746829       13.26365132608935
S           16.17267893680703       18.36419501563313        6.41822798974942
S            6.98425831109587       17.23902587598364        4.84642773560828
S           16.46193267085149       12.62825477480822       13.42922493670454
S           16.54532437529988       14.34307448208119        4.97163953647949
S           13.08628612869967       14.14683503315294       12.47161657846786
S            8.06189077054995       10.93255199228328       10.00199775509670
S           18.35313275573933       10.62986451178397        7.43045393571393
S           11.66396505117274       11.07350244913166        2.72988756779774
S            8.29357598055580       12.63986622927848        6.37433742881778
S           10.89929158131509        8.69918817848886        6.03108161317714
S            9.33831183434487       16.82048798224057        8.85615227087176
S           16.43575658000493       17.41204542849680       11.73056213292195
S           12.07209521136118       18.08342161967655       10.89816220429120
C           19.96208378375172       19.24733396766612        7.32205015016061
H           20.47514922636293       19.80066981548745        8.10230858940952
C           22.18094440244112       12.01759525944064        9.46074185040052
C           10.76646731142407        8.81774075229460       14.36853241043272
C           12.63168735310254       18.54498020457552       13.77891294556010
H           11.59085575339117       18.79277463698739       13.56355445145490
H           12.85431204280943       18.80328025754861       14.81378614116097
H           12.74053271889931       17.46563287412699       13.65727164491915
C           16.57186185956339       21.55481883749069       12.98573568661927
H           16.17348167630537       22.45686349853544       13.45508195605711
H           17.25845461424971       21.85366145387026       12.19369083760162
H           17.12870340808905       21.00047423097925       13.74291673096203
C           10.71748621049033        7.54481177425245       14.92480089042325
H            9.76209274076151        7.15214533404504       15.25799375393658
C            6.59224402872081       11.03505356268940       12.28324405968393
C           15.40700579589397        3.58680378174076        9.03696931319381
C           13.14095259447656        8.55239929483290       14.06755188473525
H           14.09205099328554        8.94529956287509       13.72719615731402
C            7.15588203640105       20.82146129519180        5.63492268770704
C            8.00465977193536       20.52813169019367        4.57021173553966
H            7.67655705987289       20.73214703970228        3.55593285103400
C           11.79969831404378        5.41481232306416       15.71854385305203
H           12.54757472174198        4.74560014357202       15.29226663107181
H           10.81273300023992        4.96962923765547       15.59185207776225
H           11.99714619674076        5.50384117581975       16.78948056218835
C            6.84076062080680       12.86332667640056       15.61358903404596
H            6.99080069812871       13.94001419677769       15.70453144571503
H            7.51650700383596       12.36979380637795       16.31553649599778
H            5.81604524237897       12.62469808294191       15.89752195325758
C            5.69792726536581       10.02511491600840       11.62144404626150
H            4.78428794289108        9.87490455029968       12.19576089969841
H            6.21620073183625        9.06722826331925       11.53480577149054
H            5.43783594258142       10.35123386486375       10.61327058324591
C           11.86518806784190        6.77184951056880       15.07211401882384
C           10.71276912750743       15.39218040797427       13.01255785688351
H           10.51611282431577       15.31746723874310       11.94948392797938
C            5.78144268360561       21.37385698791154        5.37650054787506
H            5.12253338725033       20.57583665154980        5.02606797420525
H            5.81334498723762       22.14620198866039        4.60705807137585
H            5.35351590602211       21.79778032275370        6.28474467165851
C           13.64418671014343       14.70218787627439        0.21988430712494
H           13.06176665721048       13.98563014645700        0.80556809693694
H           14.69462109301978       14.54329660141208        0.46910056004357
H           13.48973770764775       14.48944785755084       -0.83758749817514
C           14.32218366416778        8.58448242281857        4.23229553866984
H           13.38829118925047        8.85596200733133        4.71087733430178
C           16.69503485292169        7.87619649328316        3.02093341852741
H           17.62830116304687        7.59256641477767        2.54470159502151
C            9.51548546859917        9.63587242560891       14.23969854825445
H            9.69344546756529       10.66059204670201       14.56900281119042
H            8.69750253017550        9.20651504280971       14.81735039149955
H            9.20746006702110        9.68194074976652       13.19136757408081
C           12.18150532273740       15.02532135240962       14.89198571612096
C           10.15223102173222       19.67122354679207        3.60512143695567
H           11.16590535939469       20.02156020000209        3.80337605700671
H            9.77851061300271       20.13549900112159        2.69323596307941
H           10.20899063534023       18.59113593821834        3.44249142899146
C            7.30648901374238        7.51256335918037        4.67981224797980
H            6.76821402453750        7.53912814466474        3.73794378148949
C           19.80287911433591       11.16777613188682        8.25334128516718
C           14.36949383800737        8.42786805640825        2.85761489264209
H           13.46965594227924        8.57735265762410        2.27254139602498
C           24.41492819434080       16.47752082771315        8.42630001396569
H           24.69828576212678       16.52925503786032        7.37541195638419
H           25.11480457341161       15.82114427663499        8.94599670427731
H           24.50584012147570       17.47527102738175        8.86005055106697
C           13.47454456022345       14.53222636532954       15.47193744789776
H           14.32023961255170       15.03337928198744       14.99732961982406
H           13.58606606530955       13.46106169561112       15.29329518971557
H           13.51720515529309       14.71331859864889       16.54535454240800
C            2.89733252815850       12.80011417628304        4.31363443637059
H            1.94109065100695       13.12013111755013        4.73368927045457
H            3.21757758229631       11.90186405696591        4.84188942555926
H            2.74142162022606       12.55459280617430        3.26273568861012
C            9.23668920521952        8.58984038760111        3.49435347532149
H            9.25676726110014        9.68067177081818        3.56016848044133
H            8.67932153018358        8.31077702583515        2.60061952233474
H           10.26873956604494        8.25180674510805        3.39529555431178
C           18.67880295286897       12.82939640530650        1.90700477570563
H           19.11290414347505       13.20106353873271        0.98449395281595
C           15.64079219049185        7.91788857482543        0.74219726735222
H           15.72911589369889        6.86039225231674        0.48423300675387
H           16.51542939065867        8.43540552440243        0.34498982555856
H           14.74892519994992        8.31759701245303        0.25986144269742
C           20.70180113789462       14.90577364667381       11.40428168798127
H           19.90424765344150       15.59347250740452       11.69393439839912
H           21.50196418582892       14.97970213525954       12.13990455847330
H           20.29168170931861       13.89525966116894       11.42243465805457
C           17.56149854194758       17.17392717119495       13.05868912412514
C           17.37467217641402       10.10908403994105       12.74463943219142
H           16.36066053349290        9.87266342001877       12.44352455033546
C           19.14994703837395       18.73293978500607       11.86566874970879
H           20.04243397350227       19.31779868251150       12.08560388859591
H           18.32446295690249       19.40957383660926       11.64245873736005
H           19.33962749639198       18.13748185611571       10.96965134042456
C            8.84784749592543       20.01154568756532        7.14604274386538
C           11.45898847904837       10.35537616799155       -0.18113009659886
H           11.07691469213558        9.57717519753588        0.48141341903354
H           11.50440585290810        9.96850175574260       -1.19866489804371
H           10.74991292894856       11.18607696892096       -0.15571472580031
C           18.97727247694114       11.66864315796244       13.64146518313195
C           18.79341656959600       17.83756611794709       13.01833503832273
C           18.36710704423395        9.15436099142251       12.60832531600182
H           18.11232269939984        8.17997755289022       12.20688883507234
C           19.39877249822824       16.82549782795821       15.14146093410916
C            7.56738776021056       13.53222979718406       -1.28020142336012
H            7.73441384416502       13.23414838596126       -2.31028628809076
C            5.19419578820413       12.71490469674961       -1.49261601651491
H            4.58029046949578       12.07684579280773       -0.85585550649725
H            5.57883750393524       12.12149970416633       -2.32199851612964
H            4.55412299978447       13.49978739609338       -1.90192466481039
C           19.30257680675062       13.01884259633447       14.21555027110266
H           18.95716750667105       13.80846455154765       13.54580803030266
H           20.37440361854588       13.13249086616261       14.37625254165924
H           18.78673989048522       13.15385691461216       15.16842767079764
C           19.69507642223700       17.64968892674467       14.06000675911233
H           20.65279575980356       18.15880136532982       14.02381876581719
C           19.67896288929672        9.44313963400415       12.97689951653665
C            5.25505967339371        6.52006673149781        5.75720298927857
H            5.14789499405399        5.57456563824100        6.29046982457197
H            4.92704072562539        6.38414987183625        4.72693393459384
H            4.59668414212036        7.24976388804172        6.23411004731641
C           14.27995359081371       11.59890304042731        2.02591603761971
H           14.44448941676292       11.86833353704981        3.06202976485228
C            4.74897555416988       13.94611912039624        5.57465871220189
H            4.66879703207872       13.19204267686142        6.34876953260956
C           15.25010480832149       20.58920032802066       11.06671627461588
H           15.90348869392778       21.10483438914885       10.37199174410371
C           18.16078679283525       16.18929962076556       15.17840152347619
H           17.89960086175889       15.55176561159999       16.01544744999164
C           19.96590769747876       10.70107314950894       13.49882517956618
H           20.98021810403521       10.93507284726935       13.80625914166642
C           15.13054325583358       11.33344686870623       -0.21191872292502
C            3.91693735989610       13.89513178981735        4.46073463448367
C           13.54747972065262       19.26222699505421       12.82789117321599
C           17.25660932558439       16.36370037065320       14.14528988617956
H           16.30014890213783       15.85586058477061       14.17922414622006
C           20.75898320449596        8.41281066887706       12.79522531302992
H           21.70399823549014        8.75712542284930       13.21478118391668
H           20.90529712965769        8.20885768454595       11.73251732032549
H           20.47909255841051        7.47672008172948       13.28098738213563
C           17.42626219753889       13.23942299403210        3.91702294706172
C           17.91740277927354       18.42536074611806        6.35949705248635
C           15.45581465368850        8.38588852582148        5.01027549457944
C            8.81015513750186        4.26452526178571        5.29656863659452
C           11.11438833788974        5.04615328216052        5.38391167891233
C           11.22238244748090       15.59778630649727       15.72033050152820
H           11.42575192117191       15.67804664135848       16.78324199868921
C            9.29074299568756        7.99580342669773        5.94727727996265
C           20.82187184596506       11.72548545859637        7.47269136647174
C           14.22163967726673       19.79949300372524       10.57797063364198
H           14.08425715628761       19.69588865767108        9.50795885906856
C            7.39419818630218       11.96564693388396        3.86557996525406
H            8.16572413829707       12.62872986528718        3.49226617195189
C            5.81129136552053       15.93676762561709        4.72503911941511
C            8.60386139760796        8.01059742542320        4.72735187757106
C            8.84956722633051        4.01811661135316        6.66524142241718
H            7.97878448290291        3.62332211841536        7.17681268038119
C            6.14840501440625       15.22985835955221       11.68851174528657
C           11.14440380422507        4.78269256178329        6.75776802203742
C            9.68226987057620       19.68888373179661        6.07904953313002
C           13.36985477757907       19.12770260444141       11.44545523802159
C           22.19900473195795       15.74421723728052        7.47092633726044
H           22.58071298392749       15.91576258917136        6.47114335467286
C           15.56477875148088        8.08354445338929        2.23487245551267
C            6.78545411094995       16.44244584390540       11.93899674277866
H            6.49963751018107       17.02294136144170       12.81045476254415
C           17.88876549512361        7.75269635204240        5.22662387534926
H           18.18520850969717        8.65489788110191        5.76595294294515
H           18.71844965116635        7.43286495681464        4.59690107178767
H           17.68961722669372        6.97637727437446        5.96734460410113
C           20.70237617912951       18.68234497255745        6.28561613513399
C            4.03056135359591       14.89044875722427        3.49388419493071
H            3.37561342855333       14.87065380206981        2.62864278169683
C            8.40334077900307       14.48871270468490        0.76126636619869
C           10.00544239233844        4.27584503319669        7.38161918468740
H           10.03513766676270        4.07077194523439        8.44529613120314
C           20.39648943421274       15.02511285240135        8.90061518607640
C            8.61381210245575       14.10727437848947       -0.56776224524883
C           12.42997501963486       18.69668953674730        1.19865526526601
H           12.13410341699444       19.70934225273847        1.44786278993472
C           13.01975566875435       11.17833198431695        1.61766703349440
C           11.91416960257120       14.91736832967326       13.52258145511538
C           13.08232725840355        7.29416695751889       14.64239865629370
H           13.99239481990293        6.71745159774203       14.76242072603959
C            9.23173925057169        5.73145372293094       11.17279534991261
C           21.20170667031949       15.22975225266902       10.02649639017046
C            8.12047201834030       16.19170728412589        9.96263885704358
C            6.67817752508896        7.00306910926030        5.81230111836734
C            7.58189106699230        3.96200317659316        4.48452342207210
H            6.72552959283122        3.76602772876809        5.12938350916904
H            7.75339385067636        3.08080014132658        3.86260349802572
H            7.34348600502973        4.79752861552524        3.82499975480174
C            5.44404941437445       10.26834862313386        4.82358229841507
H            4.68107473688435        9.59683605849050        5.20375930696686
C            7.38551474914931        6.96504994410770        7.01125181457297
H            6.92435533743188        6.55553424230896        7.90267262269663
C           12.54404723488203       16.88340359062101       -0.36311454593811
H           12.33949948997446       16.47497685751256       -1.34757077749657
C           17.83403555199234       15.14969529906585        2.31465442313059
H           16.77926955330621       15.37199999690769        2.13544378377599
H           18.39542107216772       15.35697594635999        1.40422476467788
H           18.18398356434440       15.81473865267510        3.10445364436158
C           10.01055057025658       16.06200921787785       15.21851468980750
C           18.24455182032462       11.02740983844183        3.42036354397836
H           18.33338521089919        9.98400366693434        3.69328374307847
C           12.28840843254979        5.62100818586673        4.64743324166608
H           12.40255232556198        6.67466872623881        4.91249145074508
H           12.14118755954536        5.56030087499459        3.56945943065306
H           13.21014859974696        5.10186234320696        4.90722172905236
C           13.10889806631212       17.93104773401924        2.13056851659567
H           13.33475365484634       18.34056211329827        3.10868383518856
C           13.50749123264477       16.63449973967615        1.82643600217541
C           19.97608773055396       11.06017765072187        9.62804893066234
H           19.18114421416498       10.64356888869380       10.23537224470458
C            6.51000526857700       14.50089802405163       10.55937759986787
H            6.02748032933432       13.55497760920441       10.34088801848464
C            6.57532648984234       11.29267665056437        2.97676600064527
H            6.71103489943041       11.43289446356797        1.91051579101046
C           20.63607336817048       11.88448838835011        5.99034056461908
H           20.41335185658923       10.92114616310990        5.52813878431114
H           21.52466905248203       12.30802284798427        5.52310040707731
H           19.78777204902106       12.54342064923746        5.79004650415652
C           14.58630930931519       20.05077609276498       13.30462719447210
H           14.73002115275669       20.14467076229094       14.37632919856876
C            7.59851053080039       20.57326673432214        6.92963574773796
C            6.31182236803316       11.48508994054141       13.56926106262208
H            5.43531170759358       11.10167138700090       14.08147369027846
C           18.65463912911022       17.84053924752758        5.33841460304480
H           18.13656799429426       17.29403884932488        4.55974666518083
C           16.43089402882238        5.74919024418670        8.75545454112204
H           17.05439264269302        6.42212223281511        8.18026905168827
C            7.07900226406955        4.85230732747142       10.52432500731059
H            6.09781459483898        5.01868023808461       10.09370234352051
C           23.00721243092119       15.97125791503237        8.57977800517043
C            7.96525492433833        5.91130977035632       10.63262881180537
H            7.66948427868938        6.89573500417279       10.28871078402077
C            9.76639495448796       15.95517757813045       13.85279631541536
H            8.82837419389312       16.30647103419771       13.44225301686000
C            7.15721815432640       14.28387719039441        1.34005273485356
H            6.99741310840422       14.55858448292161        2.37530241383582
C           20.90073682395374       15.29087079129715        7.63497421596793
H           20.27400357882447       15.12686907370155        6.76616162824937
C           14.51586928812388        5.75945999965099       12.02408649234548
H           15.27995783944633        6.25733050754968       12.62265706603143
H           14.11345036271127        4.91578297723928       12.58359509870317
H           13.71210198809374        6.48038214808320       11.85852349337192
C            9.94338633457529        4.78499607339455        4.67936211891278
H            9.91767089370382        4.98981273426075        3.61379972175492
C           17.66681493354303       11.36849757827626       13.25494880842761
C            8.25276149727941       12.88780002962661       13.53755450443186
H            8.90675640716841       13.60532252122178       14.01748872061400
C            7.13423192131470       12.40568816764414       14.21165267548474
C           20.03446393347845       17.96588856520406        5.29770965763923
H           20.58883466504654       17.51040343517689        4.48460074970569
C            8.71214141329384        3.41044230631561       11.51924281804845
H            9.00741555431628        2.42746466724811       11.87202960212380
C            8.53719601237407       12.45604787447694       12.25436538790261
H            9.40940173681160       12.84101946806287       11.74024366828340
C            7.25346753593367       11.79424881910145        5.23756936045166
C           17.98779044572793       13.71641343753873        2.72949593503302
C            7.72277458089907       11.52561997549106       11.62066164961169
C            7.44899697224132        3.58375308818699       10.95824591064514
C           22.19155669530724       18.88534235564110        6.23107888847181
H           22.64078929252753       18.70119184679523        7.20776298819411
H           22.41583077398487       19.91618642670261        5.94781155258788
H           22.65183421583961       18.22188508579972        5.49929094612813
C           17.55344760682005       11.89491608304644        4.24699795665017
H           17.11232464447057       11.52295400726126        5.16361254019980
C            5.69105208460255       14.95278011577655        5.69823889833996
H            6.34906555319753       14.96865098182555        6.55961837129312
C            4.96150646513441       15.91593519306894        3.61254515321325
C           15.32392859872597       11.67946582789440        1.12299658324401
H           16.29628852913126       12.01656889091631        1.45737988416314
C           15.85313178799151        6.19957582979853        9.93762001012178
C           19.56400720983125       10.53602098682041        1.34229654643481
H           19.83118283674508       11.01292535824063        0.39955090892944
H           18.95260685850909        9.65702249541511        1.13037599594927
H           20.47927054265139       10.19720766784594        1.83179129844139
C           15.09746073515282        5.31275566437432       10.71427327627950
C            8.44327616291419       18.25054479061257       11.37585044797901
H            8.29941267640537       18.93635382805370       10.53890390323172
H            9.51924726897678       18.10736831567049       11.50267484630412
H            8.04153985594199       18.70774944675601       12.27958796940924
C           15.45041274489985       20.71526548250077       12.43742473419032
C            9.95429253635465       14.30630022884998       -1.21409023947625
H           10.31248862818300       15.31972629039933       -1.02900704885682
H            9.90418349171052       14.13346229084889       -2.28854748517003
H           10.68407225323510       13.61626505007440       -0.78461158662298
C            5.06788835917764       14.73630540272716       12.61051378671441
H            5.31548769931250       14.95782631151726       13.64918972106878
H            4.92717182618632       13.66075603939770       12.50404147540804
H            4.12251297732292       15.23054645493350       12.37534154014702
C           14.87843848635556        4.02270956795622       10.24951946659651
H           14.27060309959979        3.34513679244860       10.84079482811393
C            7.77175292533174       16.93712831652408       11.09046322407730
C           12.81153920964981       10.81790349925018        0.28210782570258
C            6.50683095071864        2.41759337003124       10.84138380479845
H            5.64457002388757        2.67317191715817       10.22580190410024
H            6.14991046999000        2.12235019974171       11.83029277071527
H            7.01375652183591        1.55965595841438       10.39735523802399
C            5.05024645075605       16.98568763375084        2.56049855895859
H            5.03434379550934       17.97316737139202        3.02426241893311
H            4.22352765519401       16.90847939875141        1.85497598073868
H            5.98748236902607       16.89646255490419        2.00722031369204
C           16.65823623081544        8.01254400415481        4.40529263404023
C           22.49114220543456       15.71569706153459        9.84846591864158
H           23.11548737313101       15.88301566136788       10.72020301325160
C           17.80242524753663       19.76272845969729        8.49129804215916
H           17.00070812958007       20.38514604149163        8.09092784096519
H           18.44721913619366       20.37269693037158        9.12310643428149
H           17.33778797870104       18.98975464362927        9.10807476807856
C            6.31709506717609       13.32891344936965       -0.70343613999759
C           18.81848555690535       11.48618439116596        2.23770045495103
C           18.57991031157394       19.13206838072058        7.37234753458799
C            8.98951666278930       16.68505153739978       16.12940869917571
H            9.03989868081714       16.24829442042784       17.12695378226967
H            7.98314160166252       16.54737683017115       15.73290113112040
H            9.17556492133496       17.75785639163822       16.21809249791604
C           15.06875447985899        2.22111806706454        8.50827934333631
H           14.95683458414603        1.50288292107759        9.32076816786022
H           15.83628416320836        1.86491640887566        7.82131328998954
H           14.12065565103147        2.27246345901093        7.96621494942921
C           11.99461684481147        9.32699537139354       13.93018058033359
C            6.11990559105178       13.71762185096087        0.61858069144623
H            5.15588486547063       13.57420726355310        1.09405791089418
C           23.47304677951695       12.44097359454882       10.10397599326508
H           24.15349875631962       11.58868282712186       10.16895362922455
H           23.29918554864631       12.81296856168206       11.11412352107476
H           23.96077206244369       13.22160278620770        9.51997594643970
C            9.60892009071082        4.46519566034508       11.63536073037485
C           21.99919562635282       12.13667274497099        8.08608462685770
H           22.78867564244351       12.56638495360745        7.47772632177599
C           12.13171011994676       18.17616668749462       -0.05856782351647
C           10.96747128947637        4.23761685492245       12.23331620445112
H           10.98869453877184        3.32099543884272       12.82206228295739
H           11.24868967312118        5.07991892833274       12.86562581569296
H           11.71573239231872        4.15409152971690       11.44156230490425
C            6.13524999467867       10.66867259144840        7.20118956615155
H            5.18803969613299       10.18014861014655        7.42780883816998
H            6.20414978182097       11.59844445882700        7.76640660516079
H            6.94686561298130       10.02078366634013        7.54190980671566
C           21.15091806786680       11.48068452023838       10.22794401131701
H           21.26558796357668       11.38433561143982       11.30171685787491
C            8.67840461257360        7.45362152236190        7.07126564713493
H            9.22286552494766        7.42353476366461        8.00739783672961
C           11.37548191778522       19.00476668335892       -1.06036416723868
H           10.39464908429595       19.27276341035175       -0.66276346878838
H           11.23476813912785       18.45907167445900       -1.99320178569458
H           11.91471546294400       19.92926757203532       -1.27439852116753
C            7.48719074921990       14.98197539323678        9.70474163705990
H            7.75578499606285       14.41524591466888        8.82017068550121
C            5.58177025447446       10.43915863119195        3.44964138074396
C            6.27298483291452       10.92467808440164        5.72776298092757
C           13.22541551877065       16.10237496589810        0.56372099660116
C            9.26150737159574       19.97418173032075        4.77353929787066
C           13.87190954308957       10.89915482942929       -0.61478994850239
H           13.70698770308682       10.62159224288107       -1.65084626300433
C           16.21203920422219        4.45547304778028        8.30668582652560
H           16.65980411619456        4.13104837124381        7.37409235775828
C            4.69190678439405        9.70772878096594        2.48277909688044
H            4.23580127886167       10.40828926049436        1.78109436056310
H            3.90128207558907        9.17144337308766        3.00700941454197
H            5.27570109573562        8.98768828415531        1.90566862450474
C           20.40390583148061       16.60470732230351       16.23723924945356
H           20.96961169637683       15.69088986648064       16.04068749720851
H           19.90722102471996       16.49293215230830       17.20129318530731
H           21.10768112867200       17.43491072667163       16.29518082549572
H            9.18723167793263       19.82945275812778        8.15807408129754
H            6.96686983789234       20.81053983552899        7.77834236813032
C           16.26943921965133       11.43807077316640       -1.18809683944892
H           17.12711034188865       10.86404610279807       -0.83299674909762
H           15.98102292623133       11.06450122728832       -2.17025138021173
H           16.58274288705625       12.47903101144657       -1.28910715976933
