324
 energy: -593.868349287635 gnorm: 0.000686628057 xtb: 6.5.1 (579679a)
Au          10.83479828648270        0.86579668614461        1.10896418056872
Au          14.56111161565623        0.24762787077935        1.23047574864199
Au          10.73937129936999        1.93570057148601        3.85692304578348
Au          13.42251713037637        2.38386580905118        3.08098276547787
Au          17.06488909284385        3.65867767342251        2.48273973544178
Au          16.14972692888888        1.64886467217390        4.52198066638755
Au          12.90256690386169        0.41795026776066        4.97279611549501
Au          16.11245555497206       -1.28325049660051        5.60585280377026
Au          17.87676926829016        0.30541044581460        8.34525018385880
Au          15.11371472824152       -0.79404702297730        8.41658711736125
Au          13.03948371524018       -2.70377869356048        9.49695840027422
Au          12.47050806312932        0.10888868233388        7.93947925111243
Au          14.92300298267457        1.59054585494346        7.02480609889729
Au          17.40641514000655        2.87823176705174        6.84056072708305
Au          18.54893028073411        5.40689359959465        5.31119442548074
Au          15.28125596536225        4.10921163236024        5.52577936716000
Au          12.39256836175577        3.01677767319232        5.81239140142216
Au           9.25538201343878        1.82283771103542        6.44062735614921
Au           9.83763646854846        4.81393133858631        4.42275740873553
Au          13.33966749482749        5.25457383450027        3.91538452647719
Au          16.06302590219324        6.09566267743791        3.80301337034851
Au          15.06675387378051        9.41589811547817        3.93868460125612
Au          12.23872737220358        9.21826029246088        5.27328112145633
Au          11.70379539011050        5.53228824485008        6.80702274178079
Au          14.35883610519062        7.04653448046925        5.81845191423155
Au          16.02450008117932        5.79963099130346        7.98417886346043
Au          13.74825005656252        4.23551849456507        8.20077745694009
Au          11.24191087800153        3.03729327716929        8.34453260901816
Au          10.35812197127990       -0.34497519731902       10.08394009968363
Au          14.10054277769058        1.56577193340440        9.67061798177639
Au          16.29511541088636        3.62993149987878        9.71995202836024
Au          19.28991461187666        4.09207533102254       10.02344529344147
Au          12.30438544988144        7.26281331676107        9.20308347340682
Au          14.51325698015767        5.71377250510842       10.41357625150358
Au          11.99696499193485        4.20523395171943       11.13853711145662
Au          16.88598206007818        5.48417444729570       12.29878676566334
Se          12.66618047407015        0.06234220868160       -0.31752636912404
Se          16.45604727612123       -0.16638694670458        2.74314345200284
Se           8.76391299946238        1.41093649282373        2.31086537620886
Se          15.01831027844779        3.20019794364043        1.23008789160882
Se          19.20858833924675        3.68656357767322        3.66088147665225
Se          13.77581565064252       -1.93582050067788        5.21026197464024
Se          18.42966924131836       -0.60282032346923        6.13935558860464
Se          11.26290121219088        5.34758459882242        2.50078292102748
Se          16.71989262944582        8.20904492550431        2.55654377709942
Se          19.68968428367117        3.76961675498566        7.61832707549131
Se          15.45793433864748       -3.16032258003923        9.29959453772698
Se          10.60834541403717       -2.76146023878020        9.83310148508911
Se          10.05646459357596       -0.38000191608237        7.13973946761526
Se           8.40832807295709        4.11805890227777        6.31796328664739
Se          10.48234800264701        7.54173812206730        5.76460936045673
Se          13.71523612922558       11.15904237883861        5.03156805977421
Se           9.93662447895852        2.06395125703671       10.33883559575084
Se          10.51346698849784        5.99759127854043       10.29457525867512
Se          13.70953544811477        8.64378676970212        7.75694569777301
Se          17.77074836434573        7.19179233265160        6.80827700358071
Se          17.72628701927037        1.59097395768726       10.41734587975897
Se          13.61656104050201        2.54107120626119       11.94203390143446
Se          14.87223640256570        6.86509866184712       12.65973779525079
Se          19.02622482388226        4.28681043449818       12.44231615606236
C           14.20411740459638        1.91602094307035       -1.84438201417649
H           15.05954476564453        1.36986086685785       -1.46524428915028
C           12.92499434653100        1.54681050008605       -1.44685140950822
C           11.83441682353538        2.24148261150094       -1.95644626877883
H           10.83238344861857        1.94652301715304       -1.66909277805821
C           12.01905218472134        3.30049285128696       -2.83338768791202
H           11.15784809831129        3.83586327616864       -3.21701451734210
C           13.30103379915271        3.67609558407809       -3.21189385214713
H           13.44764577308636        4.50984098056975       -3.88849438433999
C           14.39357206446548        2.97725979836711       -2.71697088776797
H           15.39911354771008        3.25978126684996       -3.00785577521616
C           18.02031947344258        0.44414048782292        1.88930516051548
C           19.22714505233296        0.34657751104427        2.57286026439420
H           19.24326726520510       -0.07801563901651        3.57035089225989
C           20.40017541444439        0.80880192897432        1.99633170160083
H           21.33307530102348        0.73249364934177        2.54376821908252
C           20.37856381707227        1.37825956858398        0.72972352429182
H           21.29292665631052        1.75138538796143        0.28363896919989
C           19.17715209321699        1.47206688943782        0.04121975679858
H           19.14820513035977        1.91309842097840       -0.94867751195012
C           18.00410687149761        1.00540459460830        0.61877202445837
H           17.06876748791776        1.07410490183258        0.07683748467074
C            7.34942555541749        3.84121715219644        2.25751624590547
H            6.82068846098356        3.39279883658136        3.08834395892765
C            6.99012215260426        5.10045975110930        1.79861611349216
H            6.18628766391766        5.63903630431366        2.28785719894383
C            7.65679115152161        5.66419667001249        0.71846999814908
H            7.37626584500365        6.64561899936751        0.35463261721217
C            8.68441896527943        4.95955508981275        0.10540229539397
H            9.21555118336753        5.39136330732194       -0.73562129156298
C            9.04100052109252        3.70265145538655        0.56929186778321
H            9.84846653020215        3.16098191547044        0.09105750103420
C            8.37607234211912        3.13011447148017        1.64528699565765
C           15.29034079660690        5.85776694259043        0.19999904254359
H           16.31584507557052        5.79476054783778        0.54265951009238
C           14.84567463169970        7.00407065517357       -0.44180669760366
H           15.52583378437566        7.83660527108328       -0.58167260611158
C           13.53693164497447        7.08313563741644       -0.90008149828057
H           13.18758166019876        7.97874502648553       -1.40006279996786
C           12.67851036002805        6.00869869687592       -0.71119341403951
H           11.65511472538194        6.05834698227291       -1.06573096472267
C           13.12167282839142        4.86947365016339       -0.05579894946718
H           12.44739421977293        4.03593154608857        0.09687882081247
C           14.42967377773180        4.78833856979829        0.40459570924675
C           21.68020936801338        4.81946397413626        2.92284015118554
H           21.94996225433713        4.59218713046696        3.94721203293649
C           20.39585332591988        4.53676550708575        2.47258936533891
C           20.05694200063770        4.82450135530066        1.15764251781184
H           19.05886351611382        4.59837508932718        0.80062346110170
C           20.98795354017891        5.39146915251952        0.29948972500432
H           20.70905773296611        5.61202093524829       -0.72458721633836
C           22.26938167532368        5.67334442832837        0.75187012906972
H           22.99785474447152        6.11650109047170        0.08300907152349
C           22.61384595797083        5.38434869231193        2.06594297557176
H           23.61366284190051        5.59742883775934        2.42672166058643
C           12.74493044697900       -2.29422305908279        2.58388354151291
H           11.92598036608567       -1.67211088804341        2.92382871887494
C           13.81310675869404       -2.55078287254540        3.43467684205223
C           14.86154751861835       -3.34259302119600        2.98344922417337
H           15.69983578970025       -3.54109845599318        3.63999934751078
C           14.84177704543031       -3.87633771823723        1.70421110646554
H           15.67023960289575       -4.48804697842792        1.36545798748407
C           13.76484699489735       -3.63099424552261        0.86282429185651
H           13.74510429273547       -4.05108614680491       -0.13584095374683
C           12.71462839877995       -2.84003909172774        1.30813011884338
H           11.86879657382363       -2.64026357435055        0.66073927590785
C           19.86996441290885       -2.52599289343012        7.71846401135107
H           19.63674033694170       -1.89217041070770        8.56615843697336
C           19.40017923141172       -2.18387334500184        6.45789881307108
C           19.70735714265240       -2.99488931120375        5.37165480038672
H           19.34475279472816       -2.72903389565164        4.38591610977394
C           20.47647678436536       -4.13612093362825        5.54612395650791
H           20.71270574149055       -4.76006345287927        4.69165226053598
C           20.94377826033465       -4.47571786841223        6.80917580116537
H           21.54355914626928       -5.36791962472439        6.94586415958301
C           20.63898333437956       -3.66728830907470        7.89538344385507
H           20.99948748164653       -3.92323114519040        8.88517190187887
C           12.12959470179850        8.00011580547570        1.96418322699093
H           13.11836661602739        7.56146008494611        1.91126752953081
C           11.03852859900990        7.20130523007397        2.28410862947277
C            9.77518003236083        7.77416088157215        2.35157204734254
H            8.92267860615316        7.15617976771228        2.60574307739219
C            9.60189348489009        9.12629474722938        2.09816775440970
H            8.61050877719151        9.56098267274563        2.15758657700505
C           10.69246792423393        9.91885095173381        1.76740011931969
H           10.55722236141719       10.97429695325714        1.56399965612073
C           11.95825809364548        9.35155896264222        1.70172328494260
H           12.81714396928202        9.96078066428516        1.44405306330532
C           18.33103393215368        8.59490988892813        3.45261610567923
C           18.43744007317508        9.58491131960966        4.42019265651821
H           17.56228037902772       10.16469177563141        4.68916628021747
C           19.64871022994094        9.83637296082569        5.04683267849038
H           19.71042413689149       10.60961453228965        5.80445808231504
C           20.77406042841884        9.09631683422008        4.71071539822560
H           21.72181203396129        9.29190241305180        5.19833066636273
C           20.67708926033287        8.10712729860488        3.74037648288545
H           21.54922690875824        7.52446118832318        3.46673645169665
C           19.46278446524227        7.85818421071816        3.11712136382035
H           19.39091466277408        7.09272371787984        2.35428666744842
C           21.12396947578742        1.47104817349190        8.58785717379697
H           20.86761810022062        1.82530627387094        9.57899017706831
C           20.71687149729194        2.19548910842958        7.47517593255058
C           21.05785207104726        1.73784066116841        6.20742826347992
H           20.73093586073858        2.28987982792389        5.33344471835210
C           21.79462225851904        0.57332847898528        6.05474557753595
H           22.04820650864009        0.22599138976933        5.05928913639242
C           22.19577644805101       -0.15041224379991        7.16992695276587
H           22.76265469418000       -1.06631243841224        7.05155288640737
C           21.85935198269228        0.30349609057429        8.43771601628468
H           22.16680825782965       -0.25283986622175        9.31588161775760
C           15.51297717726748       -4.13473695389503        7.68778964308666
C           16.74730499262400       -4.30339490180276        7.06900894845780
H           17.62868568800104       -3.86564902463845        7.52011991975406
C           16.85567032644024       -5.04092179686578        5.89854127624193
H           17.82599449749843       -5.16424612798038        5.43099522466514
C           15.72638611325099       -5.61627392881268        5.33060289844824
H           15.80837210699242       -6.19508107448371        4.41815280994563
C           14.49120660100710       -5.44823144549471        5.94256657880826
H           13.60188723661560       -5.88835905098558        5.50539932949604
C           14.38837944050096       -4.71228718077743        7.11310316775993
H           13.42151938028714       -4.58484387170936        7.58613912111183
C           10.41501744054300       -3.48548992309489       11.56162056085141
C           11.32215394280829       -4.40736518270579       12.06796850987173
H           12.18762147479134       -4.68581035206350       11.47814088352034
C           11.12724930230154       -4.97223842760125       13.32021920605930
H           11.84670568107583       -5.68631398163670       13.70484822333787
C           10.01670728931182       -4.62365406116182       14.07646683212952
H            9.86382378469387       -5.06299288843472       15.05534164116662
C            9.10286232069356       -3.70758999735309       13.57170157189166
H            8.23057048119176       -3.43091513144177       14.15308436631296
C            9.30298324321920       -3.14198925229429       12.32081892583573
H            8.59158327125011       -2.42324718625155       11.93147622627991
C           10.02213589860628       -1.62567415771559        5.72603737931494
C            9.30176668573717       -1.39447873860250        4.56265514432908
H            8.75873049230717       -0.46549527878767        4.44176607262871
C            9.26854990013299       -2.34974928999912        3.55692340864745
H            8.70788458541845       -2.15297370681165        2.65016913532536
C            9.94877495628625       -3.55057523121300        3.71258953380542
H            9.92679338633216       -4.29523430814992        2.92576090371277
C           10.66027106198612       -3.78998388103678        4.88081910703162
H           11.19645297540181       -4.72321792623561        5.01174758089073
C           10.69858337192749       -2.82998039338358        5.88050098792940
H           11.25963560086067       -3.01498375590461        6.78911620482032
C            6.00853192585567        5.16807807385844        5.27228880551804
H            6.52950060888602        6.11484184655553        5.34976335902386
C            6.66109687464620        3.99365142355420        5.62936574995620
C            5.98882226289517        2.78331885763893        5.53036778340132
H            6.49377062316019        1.86662847783806        5.81213948117096
C            4.67757659503730        2.74328986248452        5.07830013357367
H            4.16420137812331        1.79131100685897        5.00503091453549
C            4.02885491966388        3.91721385180086        4.72131070975415
H            3.00525652228948        3.88738250605371        4.36660002445426
C            4.69791206057892        5.13031718137527        4.82005422737252
H            4.19800215641508        6.05228640819679        4.54556297524913
C            9.95764972575082        9.41144372129346        7.89235109177248
H           10.77417139127076        9.99298291754435        7.48222877134172
C            9.28354363504017        9.86465650938312        9.01787919769977
H            9.58540174516776       10.79560526940390        9.48424154050751
C            8.23210744492069        9.12792720165199        9.54499242475368
H            7.71091349736731        9.47650804435249       10.42878284492559
C            7.85819318651717        7.93757415275430        8.93535961110611
H            7.04089556498829        7.35086571198590        9.34000028641057
C            8.53472376921925        7.48695887706524        7.81246333681131
H            8.25154801562797        6.54722913066530        7.35264099608002
C            9.59055388313653        8.21941076057296        7.28115579512710
C           13.79417351493302       12.31822163821482        2.40846574730375
H           14.79290661270024       11.90218447557974        2.34761204515354
C           13.03092642782973       12.10474943178576        3.54912611348107
C           11.75642762563399       12.65330812247519        3.62522280595613
H           11.15633428179166       12.49009728609327        4.51245886091748
C           11.24909497566341       13.40144418581508        2.57236491885578
H           10.25348786210252       13.82452815262795        2.64433530379075
C           12.01313805460077       13.60480185068591        1.43034675761330
H           11.61604185103898       14.18508629198756        0.60558591294076
C           13.28776889311404       13.06079976288399        1.35132647461047
H           13.89229920587164       13.21455232947214        0.46457215921677
C            7.68232987906652        3.64897696809194        9.71606524259657
H            8.31942369356690        4.46593610828031       10.03522833738268
C            8.17240333839166        2.34798791451501        9.73985806196259
C            7.35663350615911        1.31000297024047        9.30910312664067
H            7.72981860893835        0.29317424260296        9.33018264596594
C            6.06927165392273        1.56693458938982        8.85828434941996
H            5.44551658148670        0.74651119298349        8.52200045767269
C            5.58498460078962        2.86755724744914        8.83523557256195
H            4.58294254743502        3.06977314350354        8.47571361741956
C            6.39600238861420        3.90807650397054        9.26883919097229
H            6.03004976833538        4.92868551091934        9.25062152738514
C           10.43939964394098        8.32805899179711       11.97609054706514
H           11.13106959996327        8.76811746493128       11.26713288673235
C           10.00640795008116        7.02238634791024       11.78993065596141
C            9.11327957488247        6.46396938448318       12.69696285217418
H            8.77059223219690        5.44626901259933       12.55327061497017
C            8.65930271634629        7.20497768231485       13.77825802448720
H            7.96049510185451        6.76071749923811       14.47793167057215
C            9.09599280724316        8.51058377558220       13.96171141879974
H            8.74244491458692        9.08910932928774       14.80715087719037
C            9.98725630338842        9.07082327059104       13.05724900212945
H           10.33369233624281       10.08929629368786       13.19089762603337
C           15.21815713258325        9.30896304816708        8.66937620345639
C           16.25794521623116        9.86084698251129        7.93058790453909
H           16.19843153522562        9.86969387658719        6.84856119001501
C           17.36715142866277       10.39429662935760        8.56890734525571
H           18.17399672224697       10.81634254566397        7.98034436824983
C           17.44932402979613       10.37439065456278        9.95493927191606
H           18.32158207408300       10.77868581269947       10.45478448913741
C           16.40915821678337        9.82959929754674       10.69635746008362
H           16.46105230337184        9.80986896654626       11.77906730101104
C           15.29621335253005        9.30542856895787       10.05490033691794
H           14.48255579413642        8.89316177142616       10.63822932077303
C           18.82247264069046        7.48389089649972        9.43312741801486
H           17.78526495972018        7.47675335003275        9.74533616041925
C           19.82476705267264        7.68832485237192       10.36991522274040
H           19.56097417293080        7.84126419462991       11.40986606268998
C           21.15561356842417        7.69686197743091        9.97496614758344
H           21.93914237301220        7.85119014179407       10.70730954827859
C           21.47568507248960        7.50181350190077        8.63820456041321
H           22.51224515225766        7.50085598148380        8.32053831814421
C           20.47068116406331        7.31367925123560        7.70166094744371
H           20.72117720883585        7.17306711767228        6.65702766891162
C           19.13777022347480        7.30679132838187        8.09188763211401
C           16.89774836850052        0.60199017086431       11.79109916611682
C           16.75115942511679       -0.77583655852552       11.71492516029852
H           17.09851907571317       -1.30584082101233       10.83697755980211
C           16.16531174299732       -1.47785049460581       12.75839862406856
H           16.04765954976637       -2.55274125520785       12.68034413288033
C           15.73211624889596       -0.80627252171831       13.89421276183120
H           15.26959413203821       -1.35297027302049       14.70741476054337
C           15.89105635191762        0.57052223094132       13.97986679332773
H           15.55492328096315        1.10480517135262       14.86140831434663
C           16.46794259589636        1.27057206847548       12.93117677921877
H           16.58396204495783        2.34621285155392       12.99576301201694
C           12.52808503628946        1.21583105988224       12.71001841245534
C           11.45339874662591        1.56353908307702       13.51808753225646
H           11.19263993372351        2.60798486687539       13.63821713780349
C           10.71783151311610        0.58501366330911       14.16910586988861
H            9.87942856536077        0.87086820300619       14.79418702254493
C           11.05724931733336       -0.75340286905696       14.02545888313452
H           10.48854749856884       -1.51907859135640       14.53954430501077
C           12.12655360069648       -1.10637773285041       13.21341734872636
H           12.40090352714028       -2.14775496142650       13.09142804196610
C           12.85095625401974       -0.12607518149734       12.55172544772797
H           13.68270464530617       -0.40592458512844       11.91688146423506
C           13.85748181805388        5.75311745588404       13.79257306981824
C           14.40056058116273        4.67765206337046       14.48307407318396
H           15.44999656553561        4.43730773387857       14.35767875203592
C           13.61382559817727        3.91078812313177       15.32898235219079
H           14.05340099157774        3.07206737006869       15.85722111476671
C           12.26844490537813        4.21226305672570       15.49449160980287
H           11.65398356156727        3.61597092892504       16.15869209582914
C           11.71778612754219        5.28590320115556       14.80674641168796
H           10.66892282010390        5.53241631348419       14.92698095111470
C           12.50879882198171        6.04952217129621       13.96015438261125
H           12.08438071562533        6.89503504302755       13.43398532903964
C           21.56970694515408        5.53053032840592       12.60646673706886
H           21.88307195154605        4.72523272542207       11.95256761157712
C           20.23770909195269        5.62120194577696       12.99188097409198
C           19.84412718045055        6.65653854728373       13.83002763534916
H           18.80847083599958        6.72902694474125       14.14078541214545
C           20.76620028870868        7.59524934299579       14.27022290199585
H           20.44342766865755        8.40120943116343       14.91961027432291
C           22.09506273245568        7.50257180245926       13.87998841944543
H           22.81618485720319        8.23580215419302       14.22196531505898
C           22.49515411261030        6.46508308015372       13.04779948804934
H           23.53134978258550        6.38191792957306       12.73984563438047
