468
 energy: -756.148929492511 gnorm: 0.000541335748 xtb: 6.5.1 (579679a)
Au          11.00153704070106       14.81258780003925        9.62086548456450
Au          11.97542707795549       12.82101741151923        7.86393293668546
Au           8.83210265969685       14.20727515400625        7.44976309706477
Au          12.64633342540080       12.59444560092310       10.59438413919355
Au          13.68905651083547       14.84501286121074        9.09820616251009
Au          10.21658569464102       16.18611109002678        5.80918309869863
Au          10.94923580776670       11.67903585337900        5.40699805311805
Au           9.78296410487646       17.19335794510067        8.56594798899093
Au          10.32069541245106       13.42250069816274       12.32795756849232
Au           8.45259422920416       13.27804844339158       10.06690889869783
Au           8.60819265305383       14.31184890322359        4.61747004003086
Au           7.34693656261628       16.06640043532960        9.60830823931305
Au           9.36543927551554       11.43215923668007        8.12979800227853
Au           7.41480168216067       16.35189725437544        6.08783855622529
Au           9.50774427767735       16.59118959307754       11.24456336642091
Au          12.26790789184471       14.12328497752449        5.40969973542637
Au           7.69519907818943       14.44582510628215       12.50171270684605
Au          12.75111956695007       16.45945309904098       11.80871225939863
Au           6.73703176351901       12.37193198219411        7.93863675231005
Au          12.78355266541696       17.57255576786034        8.60582971524657
Au          13.72672874968879       11.76642285897774        5.88947550140298
Au           8.25544483177457       11.62638924201465       12.30667459794551
Au           6.79795544757137       11.97030092535387        4.96238866913277
Au          13.34276749061364        9.85538403778690        8.22208599043655
Au           5.11842588788947       14.48709293888855        6.75669399381568
Au           9.15047400066640       18.69462197882766        4.81812358744971
Au          10.68799653875520       11.85961739885694        2.44677142901984
Au          10.31196447000409       16.17143411284086        2.75803373318603
Au           6.98948077365033       18.85158332622293        8.54421658888803
Au           9.56432807896911       15.31059983973434       14.73063296612695
Au           7.00817022111480       17.88325829480929       12.09863631618346
Au          12.59950819815094        9.48214769833780        4.27189908780006
Au           9.86044857416650       11.91049197594943       14.95085396217308
Au          10.92427225990384       10.29509228771457       11.72722022421812
Au          16.07754252402874       13.05026562657618        7.06776566763628
Au           5.82139379164915       10.57521257228737       11.15405406060006
S           10.55553535405497       17.06046324490515       13.49345193838037
C            9.80563914752504       18.59257604756408       13.88896375220247
C           10.27677646516663       19.74225902087742       13.26553276854442
H           11.10334132141664       19.67421716407267       12.56716882567471
C            9.67681930112398       20.97135615791463       13.52161627071051
C            8.60335804725027       21.03872084724613       14.40415186433266
H            8.12944727196574       21.99418008001975       14.60099652001657
C            8.12003605337616       19.89112115742752       15.02743165770774
C            8.72755508408641       18.66806914558211       14.76470551150456
H            8.36533199864979       17.76715662731819       15.24573678706482
C           10.16775360117217       22.20467475564735       12.81594822954947
H            9.68140301768356       23.09911880314251       13.20433276727724
H            9.95035919864820       22.13060225016318       11.74834179229955
H           11.24669073580404       22.30991425067153       12.93553902037138
C            6.95538949733057       19.96956550890156       15.97564984655125
H            6.46549174145653       19.00042432223277       16.06994691803165
H            6.22538074935516       20.70183231173033       15.62912597274061
H            7.30012829204095       20.27740964559195       16.96511204972854
S            6.21293708599193       16.15296741418447       13.48688843328038
C            4.60026297941561       15.89974357182404       12.84532655459929
C            3.63604176998338       16.87245799611805       13.10525277609831
H            3.90924620473491       17.74993430782849       13.67958867326299
C            2.34046582362451       16.71866969349703       12.63013489771936
C            2.01240249572440       15.58096330372295       11.89464338354124
H            1.00386261517266       15.46471039541188       11.51270906348383
C            2.96277992440284       14.60037411947204       11.64061091188680
C            4.25937868536043       14.76638052365389       12.12236573293237
H            5.01183723987702       14.01513877081370       11.91315267765695
C            1.29670989492468       17.77124624408315       12.88548364417651
H            0.92972820667948       18.17209208435175       11.93873954544721
H            1.70285273125917       18.59126277019884       13.47727159044928
H            0.44774224175796       17.34160410499767       13.41992684199124
C            2.62003556693728       13.38274877988490       10.83122326560953
H            3.23945225877709       13.34773214333706        9.93222703283190
H            1.57155907813981       13.38883649763068       10.53447054441543
H            2.81910800330620       12.47494200495516       11.40272223895371
S            5.08878572527359       15.31730174004645        8.96186986552991
C            4.01747448182486       16.69614259618571        8.93481208118786
C            4.14904531021755       17.70146846855859        9.88510597944213
H            4.91750974562826       17.61982373089218       10.64206579381242
C            3.30403521133267       18.80461939622938        9.88230553891762
C            2.29727369681122       18.88555574160756        8.92581055117821
H            1.63611066376468       19.74515667153996        8.91101931816206
C            2.13083535025660       17.86928523849650        7.98832628071826
C            2.99352263212033       16.78025857146854        7.99802535878427
H            2.87344466227309       15.99059262992980        7.26571437016507
C            3.50982062621043       19.91136569727110       10.87951343730769
H            2.57255255044993       20.42256727895261       11.09857011803251
H            4.21261528787489       20.64500996396795       10.47802013410384
H            3.92662700591530       19.52161862739257       11.80847291397681
C            1.05075520049017       17.96388243571844        6.94597969333326
H            0.74082660199061       16.97218322301273        6.61627583681046
H            1.42423017466196       18.51015577696242        6.07685300742350
H            0.18217706437397       18.49619286556777        7.33389593013107
S            8.62950965373584       13.59561065475664       16.03522494311243
C            9.40999647709719       13.74392230804661       17.59567820765704
C            9.53105958754174       14.99137866056276       18.19586436851914
H            9.17993145660597       15.87264784541952       17.67197806385545
C           10.10223326499434       15.11138249979076       19.45821144399756
C           10.54600234521881       13.96927805726571       20.11859243942870
H           10.99622462085015       14.05767139200150       21.10150600197820
C           10.41735084085103       12.71304303351941       19.53091994426665
C            9.84689280253007       12.60835241513994       18.26842637824684
H            9.74401579228589       11.63776318310611       17.79820796697655
C           10.22042197230894       16.46129797284992       20.11158546362121
H           11.14899057397852       16.53686513376805       20.67790364333924
H            9.38897781881295       16.61187439837754       20.80369931056251
H           10.19344994311480       17.25783247371083       19.36807467131435
C           10.89366703602173       11.48538968230703       20.25849807111028
H           10.72468061278353       10.58827870849400       19.66283759848679
H           10.36341721385481       11.37847035706271       21.20640866427434
H           11.95994000502405       11.56420623420325       20.47700355154137
S            9.42396112682552       19.27891863344515        7.08157034960132
C           10.83783391679208       20.29008790141515        7.26056216438989
C           11.56527433477539       20.72387733822218        6.15961909539332
H           11.24717021388119       20.44068142448918        5.16275161821582
C           12.69787643962943       21.51179064938007        6.32940909706021
C           13.08926234883192       21.87387394256092        7.61466224729960
H           13.97362825384068       22.48636347753717        7.75305630338593
C           12.35827072187953       21.46049229783369        8.72456289735942
C           11.23420957275167       20.66007090338924        8.54360827741013
H           10.65669284935057       20.32762581302319        9.39913443820132
C           13.50213783672438       21.94071646193915        5.13316265425363
H           14.09303565031190       22.82866047914177        5.35704099008108
H           12.85020121801384       22.15440906698468        4.28516424473100
H           14.18537184405390       21.13960981434053        4.84147031339564
C           12.77079241233223       21.87687171019820       10.10849159327263
H           12.67121223081168       21.04057348513508       10.80244172942318
H           12.13140726516338       22.69008686343067       10.45776821396395
H           13.80441735887562       22.22195760981966       10.12173867071017
S           11.83456516900250       14.37794113886225        2.85375359002234
C           13.39366087625179       14.93160296968889        2.28054388758114
C           13.50882892433783       15.89281675982206        1.28303811668829
H           12.61388365884967       16.31571203820003        0.84049425191673
C           14.76541054326040       16.30975247305264        0.85917133668992
C           15.90590458229665       15.75702987827880        1.43872134560303
H           16.88563829748420       16.09018137789284        1.11317676585023
C           15.79976872572612       14.78358070944738        2.42715236591472
C           14.53728709273665       14.37482243289405        2.83845215300405
H           14.44085133379774       13.61782262270055        3.60707998392829
C           14.90296409761912       17.35674631683781       -0.21289784780754
H           15.49461127374917       16.97238727267976       -1.04541023077155
H           15.41217446577873       18.23769542042375        0.18252103787837
H           13.92678056519847       17.66049688898600       -0.59068232340964
C           17.01994769386244       14.19320561568285        3.07747662906419
H           16.86836022835058       13.13411470712434        3.29281988731941
H           17.21342924381772       14.70007112787175        4.02595180925238
H           17.89869426375501       14.30661865381625        2.44310862746953
S           12.63259773926233       16.48113781437351        6.50438808199780
C           13.61888201382042       17.36732524665530        5.35893744857382
C           13.04131947325244       18.10928448831349        4.34223047090165
H           11.96335199993275       18.18474505657429        4.27834168461137
C           13.83923769517981       18.75340126750518        3.40121285766525
C           15.22163947820024       18.64610786929503        3.49938832078680
H           15.85182707568623       19.14022067217166        2.76771716780306
C           15.81060038901541       17.90357273182908        4.52215852050128
C           15.00274937717364       17.26457508556340        5.45396413493921
H           15.44286007460965       16.67576407430065        6.25033103307783
C           13.19216558276222       19.52553064340373        2.28618103205464
H           12.37740658066298       20.14147336795280        2.66880525169128
H           12.76850246813675       18.83392822223134        1.55502255057043
H           13.91230414416995       20.16614090009963        1.77832669621210
C           17.30770208609797       17.80008081300835        4.61286671873500
H           17.60226930437510       16.98961820552762        5.27912783195024
H           17.72352489622131       18.73258971761779        5.00036218739164
H           17.73977976432628       17.62200867229258        3.62748131120181
S           12.52392410757537       10.36536214548649        2.09051967660113
C           11.74225194834770        9.09310824764701        1.17488704065107
C           11.95456573810345        7.75475654983494        1.47958720572253
H           12.59160447755704        7.49021880801791        2.31514768546500
C           11.35087822164252        6.75269310534561        0.72676800044587
C           10.54438447166475        7.10082491770235       -0.35142730488416
H           10.07278936642978        6.32467676596400       -0.94451698981807
C           10.33540284102664        8.43987580953624       -0.67682674006369
C           10.93805118541219        9.42941088301777        0.08975872340367
H           10.78048255908105       10.47374907857334       -0.15250221861179
C           11.56222774696070        5.31152356162618        1.10245974606238
H           11.10909250246602        4.64370728633254        0.37032904201896
H           11.11362941642520        5.11183102507283        2.07802423819024
H           12.62790503056871        5.08722634799374        1.17028655179030
C            9.47684620794276        8.81431135796961       -1.85405403116490
H            9.00037302839313        9.78173435235129       -1.69429719995678
H            8.70532312367956        8.06377910736223       -2.02639712123637
H           10.09173167781212        8.88279094130789       -2.75422613069664
S            8.67257754168737       10.67051442846786        5.66143596512336
C            8.69554347119072        9.06893657002085        4.95787992509385
C            8.26234212566605        8.87523547907172        3.65197373358501
H            7.89548018607414        9.71836854113075        3.07829716585562
C            8.30594493880666        7.60648559418922        3.08472131690233
C            8.78818294211498        6.53909294938853        3.83773080398113
H            8.82352311285696        5.54736400148597        3.39923040748303
C            9.21959913879267        6.72702975853165        5.14776551719149
C            9.17206343516154        8.00086843496457        5.70677975144265
H            9.51511045724593        8.16583987180613        6.72079326472965
C            7.80476142759991        7.39558692061238        1.68297928688947
H            8.28446577073945        6.53194113085433        1.22304473420609
H            7.99724982635635        8.27489092205907        1.06802946220925
H            6.72659036079880        7.22056836011124        1.69793977279118
C            9.70384433537788        5.56693306329867        5.97212166793291
H           10.51297563824272        5.87816982379872        6.63219254642898
H           10.05728659377698        4.75457921411106        5.33723090813595
H            8.88894374471298        5.18867424573105        6.59354860020940
S           10.78535852983671        9.80638401346939        9.42298990559985
C            9.88762419308288        8.29680378688619        9.47204371020545
C            8.49921403556219        8.28037081399056        9.53951035185602
H            7.95414118607975        9.21665383136294        9.56364850563035
C            7.81352091912855        7.07342261690987        9.58492429738991
C            8.53166641073809        5.87846082954753        9.55158842229491
H            7.99828994513020        4.93447578732393        9.58282836604932
C            9.92086556463112        5.88460272016241        9.47992685374951
C           10.59414433392583        7.10173100538647        9.44326401862799
H           11.67488981063981        7.11935123485785        9.38947391306770
C            6.31402564158087        7.04462465355214        9.66883467865477
H            5.88828271418130        6.72573060640535        8.71561941916199
H            5.92102409955565        8.03368915887801        9.90435984784128
H            5.98422817541285        6.34495866859876       10.43760868835199
C           10.70199554786362        4.59880024847890        9.46858732599702
H           10.07647859489509        3.76341155210388        9.15496950811981
H           11.08139723746644        4.38672027367503       10.47069287241202
H           11.55589515481340        4.67429498554122        8.79453633224125
S           12.67840775255410       14.23284626571278       12.68380085371169
C           12.92924672291017       14.07465544097821       14.41006687284291
C           12.91692621261306       15.18801517599905       15.23828193018683
H           12.83758337640671       16.17840893974160       14.80805929118664
C           13.00291138628712       15.03321783585694       16.62073424053894
C           13.08761609296233       13.75607895351456       17.16047150561628
H           13.12485277723027       13.62755350612476       18.23684747353756
C           13.12170245462523       12.63348994818343       16.33378507563495
C           13.05892814575545       12.80023190699518       14.95495987049787
H           13.10165548243228       11.94180345604531       14.29646618567118
C           12.97876388272157       16.24995304607021       17.50392729544541
H           13.00423679370453       15.96880256887932       18.55622549076084
H           12.07464561199987       16.83257847915547       17.31904185410961
H           13.83850457982106       16.88776402598101       17.29143011304625
C           13.20966268703679       11.25905850873926       16.93670432336536
H           13.05767056391973       10.49264558359210       16.17707311511099
H           12.45047148902201       11.13726944731427       17.71061940226904
H           14.18657826639690       11.10917565912922       17.39942007259281
S           16.09937482490380       14.81537475732496        8.63969189190778
C           16.63067558909827       14.09084099861366       10.14244088835964
C           16.28160317226091       14.70858030256026       11.34045133750082
H           15.68871380667889       15.61458602592176       11.31680114037518
C           16.67464630915613       14.16808277149121       12.55710993631948
C           17.43798760389464       13.00263831365027       12.57015272741369
H           17.74789054720948       12.57387142369958       13.51728707115544
C           17.80890059217663       12.38523448766361       11.37836333194659
C           17.40257543904597       12.93591832911026       10.16857454936567
H           17.68017410580245       12.45843251950170        9.23653448264308
C           16.27852191214953       14.82069234936518       13.85288147481255
H           17.16279637703392       15.18509530705240       14.37921004601028
H           15.77433055579858       14.10163189820994       14.50050851239041
H           15.60716714479257       15.66125083717834       13.67786754747782
C           18.61555115707954       11.11576460074038       11.40812289322953
H           18.94138741097620       10.83595675411723       10.40665032574965
H           18.01279571145485       10.30164398056387       11.81631447353354
H           19.49421000457479       11.23411182027779       12.04379358872024
S           14.46358570039337       10.94843276086061       10.00901910681545
C           14.39351845285090        9.89804399633796       11.40451684417257
C           15.02945412932426       10.34322772361561       12.56004925571530
H           15.51910762726263       11.30940809343982       12.55664740765169
C           15.04725272753976        9.55507236556314       13.70413851343369
C           14.37824601636381        8.33367256604976       13.70430596491911
H           14.36868524333614        7.72441524950972       14.60167644446946
C           13.72536002338766        7.88454049319298       12.55987689029542
C           13.75314975541158        8.66322683744691       11.40702411742750
H           13.28441340824243        8.30293295320368       10.50110620829569
C           15.81441239507956       10.01881969124294       14.91212642333021
H           16.88137916763682        9.84012332484296       14.76014501289492
H           15.50305224680214        9.48037826795752       15.80678890516253
H           15.67390575653637       11.08843394184153       15.07140112536418
C           12.97223987731948        6.58231159046984       12.57273366977232
H           12.86830958843955        6.18279559526696       11.56363901842000
H           11.97046842756533        6.73989304867827       12.98028579782768
H           13.47866859599667        5.84456747348161       13.19543090062324
S            4.81033954773588       11.35264920953179        9.16702440774759
C            4.36753589438199        9.86622518285461        8.35237737620722
C            5.11963012310178        9.33778970344925        7.31324530772845
H            6.03133209258663        9.83415756944660        7.00547072263463
C            4.71806815107377        8.16994491802880        6.67094391006535
C            3.55376938353936        7.53150647726371        7.08399330188835
H            3.23734581607081        6.61738947923403        6.59306176287087
C            2.78869166658456        8.05422803825858        8.12522510503208
C            3.20239749160691        9.21950271810855        8.75793796502611
H            2.62017137742060        9.63601909262363        9.57155461865121
C            5.55316436490057        7.61127814234141        5.55262263908268
H            6.51447672124985        7.26798039912141        5.93947090731439
H            5.75096598506061        8.38096751700679        4.80485929130506
H            5.05437889597512        6.77166635152405        5.06935375039104
C            1.53596157040484        7.35105024100224        8.57234293248086
H            0.85058663192374        8.04757649922744        9.05533547373132
H            1.78632730514277        6.56591329741477        9.28938162226166
H            1.02973971725198        6.88719340756417        7.72539487758320
S            6.89177130182007        9.68715894548810       13.05472497547965
C            6.36918083552857       10.55325248787340       14.48825015136148
C            6.84848851615311       10.08698493157018       15.70990255445748
H            7.46247161288301        9.19484800121203       15.73330707871085
C            6.54600634879377       10.76205781347609       16.88757769298338
C            5.76855513588319       11.91525292073102       16.83332445257129
H            5.54948514525659       12.45861793934632       17.74610329407822
C            5.28017320967461       12.38657761134272       15.61781636192528
C            5.57695647521713       11.69456675551640       14.44874726435487
H            5.20213130294780       12.05303065534056       13.49726999939552
C            7.05963927450785       10.25183157747324       18.20644625915391
H            7.24766683189987       11.07671806997773       18.89421543554297
H            7.98295941746421        9.68819150878625       18.07082084654954
H            6.32106680162433        9.58939714286835       18.66343551956416
C            4.48330514936055       13.65962823261467       15.55995558113701
H            3.79455737232992       13.65031730488693       14.71512212174309
H            5.16035403288928       14.50893052927587       15.43311465101857
H            3.91793506426571       13.81001280797703       16.47956461332079
S            4.84166447021759       13.30180254118692        4.71268939091050
C            3.60586334023037       12.12247103737166        5.11395787357376
C            3.53968439295945       10.94931421108394        4.36604428058180
H            4.25761734302755       10.78353495408059        3.57147161026924
C            2.56713832129164        9.99652891214992        4.63832685565071
C            1.66249863944635       10.21902299047637        5.67519467418114
H            0.91330060413085        9.46812037509990        5.90169284092091
C            1.71751902126973       11.38759563833111        6.42450668301119
C            2.68581349949579       12.34262746267356        6.12821134520181
H            2.72760484465537       13.25924488349648        6.70425722228486
C            2.48338151161527        8.73540876708636        3.82317787543546
H            2.32776048682410        7.87162634498031        4.47057285685721
H            3.39380256789364        8.58260668969649        3.24384455200852
H            1.64059035014655        8.79404010249254        3.13118450255031
C            0.76519335021602       11.62815914350575        7.56300375651711
H            1.31866306884298       11.69165041009668        8.50194700230776
H            0.03755159122743       10.82112109198606        7.64327207873154
H            0.23273828905963       12.57027951259009        7.42344695797988
S           12.41604604878085        8.58979090032075        6.42709076098465
C           13.12530572814265        6.99868289325560        6.47671562823527
C           12.99437270914135        6.14164221272612        5.39007884706667
H           12.53138977175339        6.50021541756009        4.47818667411482
C           13.44206674959043        4.82595650906121        5.47213772151234
C           14.01891072607363        4.37133858571400        6.65317911970926
H           14.36281103620123        3.34527690783025        6.72573058908237
C           14.16154006600537        5.22427433407496        7.74670340646563
C           13.71915988958499        6.53641071088829        7.64704134999759
H           13.83823465123144        7.21112309223952        8.48540369442139
C           13.28289758139038        3.91052860874497        4.28873661500803
H           13.71742972009208        4.36396691123920        3.39644894077629
H           12.22377531748577        3.73089557296469        4.09312624813933
H           13.76954735769035        2.95185879057594        4.46618531136650
C           14.79549599369428        4.72715111631806        9.01747657420987
H           14.74963481944233        5.48665047937231        9.79785141611653
H           15.84231667785165        4.47228698223364        8.84252003661955
H           14.28608287305532        3.82984254940687        9.37222329040436
S            8.77008598622744       17.95131394312734        2.61192663627754
C            9.59190687052707       19.12643500361267        1.60872503386568
C           10.17047316565125       18.72426381096624        0.40932491250271
H           10.13940821363286       17.67883405337587        0.12838042349673
C           10.78482498024540       19.65348184919172       -0.42180287963140
C           10.81429749079019       20.99458521618616       -0.04416980817402
H           11.29769435886434       21.72173006420878       -0.68766773375676
C           10.23413706905158       21.40772612153831        1.15063184262028
C            9.62152769279860       20.46648323117624        1.97234834045999
H            9.16128769160371       20.77924752907647        2.90218562072933
C           11.39930221310708       19.21500791994814       -1.72266992713175
H           12.29755122868500       19.79292845034109       -1.94118807826553
H           10.69024218724214       19.36868976991816       -2.53911221735904
H           11.65826907499713       18.15645683434360       -1.69214534907524
C           10.27942359661714       22.84868776169447        1.57973789166560
H           10.99800685022253       22.97168487170221        2.39324993782653
H            9.30261630217716       23.17013161214812        1.94388401461357
H           10.57886049899525       23.49454990698346        0.75487033189484
S            5.80976865781204       18.16998191650411        6.58946917554653
C            6.09622374624379       19.42484989893973        5.40715307658077
C            5.86778111316803       19.15221825895100        4.06014943531962
H            5.54461400276218       18.16088278674622        3.76410301015948
C            6.07266111142610       20.13530552586080        3.09718619510134
C            6.51040510728656       21.39764822741512        3.48755655614352
H            6.68420886830960       22.16214867844790        2.73792959382287
C            6.73258008985855       21.68540338242319        4.83102889134327
C            6.51253761257907       20.69809597148254        5.78413528084201
H            6.68121134394029       20.91522213950018        6.83200397534909
C            5.86540001225862       19.81013015265739        1.64390718748125
H            6.55371739079403       19.01655890090971        1.34499860100948
H            6.04723814146395       20.68191016998303        1.01594925775757
H            4.84693584501545       19.45910166046826        1.47183495706988
C            7.21114869401177       23.04477400601089        5.26296504860881
H            7.97369374536909       22.95318168147325        6.03774688255346
H            6.37980961426041       23.62138187068864        5.67429886462471
H            7.62904053153389       23.59689511845034        4.42118637732789
S            8.48086629402273       12.73011077541337        2.72865410793702
C            8.08671971655562       13.89491680389485        1.48291727407701
C            8.95389942601915       14.16914820502893        0.43236385850247
H            9.88605623310451       13.62350115508927        0.35019244802798
C            8.62587903111518       15.13752659949716       -0.51307633524095
C            7.42157547067813       15.82502490075174       -0.39835583131303
H            7.16718599006365       16.58692052874958       -1.12728881024623
C            6.54149509366878       15.54643949771322        0.64416073103682
C            6.88044420061316       14.58060806938877        1.58405498433948
H            6.20741646540407       14.36351121644722        2.40616068789548
C            9.57024486140680       15.41867806990158       -1.65010783033784
H            9.35567647304151       16.38498686661416       -2.10611839558109
H            9.46853970938992       14.64797655577974       -2.41731238103408
H           10.60416289512910       15.41271373378122       -1.30271382402731
C            5.23117134120804       16.27254430617190        0.77241309782847
H            4.40148158497044       15.57935880022844        0.62085555814161
H            5.15220775208803       17.07329821420707        0.03791640508304
H            5.13160239754535       16.69876807557952        1.77205402330412
S           11.19956069544963       10.17479108510726       14.08582498680008
C           10.29036750161070        8.76386864693084       14.59025596928785
C            9.60202180500345        7.96046095865669       13.69465275988708
H            9.60787640189831        8.19985099381097       12.63839282091277
C            8.86474176788746        6.86902085873737       14.14672661810360
C            8.84733058444868        6.57418245037349       15.50401651141098
H            8.27178817642170        5.72864738455844       15.86491322951506
C            9.55332569259375        7.36339759567936       16.41212455312424
C           10.26707393668667        8.46126783802153       15.95007860655263
H           10.80615289849223        9.09405400257731       16.64543357224749
C            8.05532353093374        6.07399213196378       13.16165836495680
H            7.65264221103288        5.16984226755923       13.61686827552626
H            8.66107012138355        5.79750453250791       12.29756317442058
H            7.22359935196216        6.68729873340503       12.80614147420603
C            9.53443828216289        7.02718565448529       17.87829126622037
H            9.94547263244022        7.84407090736940       18.47160375753806
H           10.13142546144731        6.13194608194717       18.06421214115556
H            8.51547362538150        6.82733765627392       18.21211919715180
S           13.27387026642942       18.52831023085679       10.72580834624683
C           15.02406486604090       18.40068290165695       10.80107186745624
C           15.63094699704701       18.41430705746205       12.05521978155351
H           15.01714688782256       18.51803274067484       12.94209859032757
C           17.00883148166375       18.28043240929137       12.16934144586831
C           17.77857680547265       18.11492137174168       11.01883760137041
H           18.85104435363598       17.97958388514788       11.10733838810137
C           17.18342069050959       18.11156748133200        9.76352714715456
C           15.80508501069508       18.27723182055872        9.66230871785016
H           15.33770690294857       18.28272440988032        8.68460434237896
C           17.66887055187963       18.30176509917902       13.52066733933225
H           18.40384536274245       17.49987201924608       13.60046079755836
H           16.93369759695230       18.18708516161718       14.31697125937016
H           18.18922992637455       19.25073369522894       13.66649370367486
C           17.98842307763920       17.87124007564195        8.51759984857319
H           17.75001302575742       16.87732041928942        8.12829914988155
H           19.05767239214535       17.91839966834541        8.72092901131350
H           17.73941729982135       18.60418781224161        7.74909173242268
S            7.96021740216437       19.48345421214638       10.64003345675161
C            7.29858263213969       21.07795190770191       10.92461687639916
C            6.48915212656684       21.36525244178255       12.01470313248711
H            6.22942046965174       20.57606620619695       12.71040837369831
C            6.01951127906731       22.65892887258865       12.21686316907237
C            6.36712202880273       23.66042663526096       11.31479415401678
H            6.00043659464404       24.66984212937088       11.46759924621598
C            7.17860386475394       23.38059600255717       10.21807271246953
C            7.64389440142775       22.08497716311380       10.02840959617454
H            8.27698781366927       21.85035276568873        9.18075555570412
C            5.15742110668824       22.97517058244582       13.40846499125869
H            4.33658414162439       23.63548751311427       13.12666558912950
H            5.75095195417112       23.48133468754698       14.17286286094186
H            4.74438432562352       22.06464658951377       13.84270590087747
C            7.53033501762837       24.45984582519371        9.23102348818221
H            8.46415186372709       24.22777536058463        8.71865219347836
H            7.62929218010470       25.42480482334578        9.72850538462703
H            6.74184054733997       24.54464320265438        8.47960816441060
S           16.11886882324444       11.48313807907898        5.30486315990709
C           16.39794169929381        9.90615956609361        6.01054371991870
C           16.34869570360100        8.80827142984685        5.15725943329048
H           16.14742296242015        8.96295447194370        4.10345934770320
C           16.55238845531006        7.52393155367315        5.65064091333667
C           16.79270741218984        7.34440965235215        7.00939474096637
H           16.94367282748115        6.34434250172005        7.40072916540860
C           16.82993117244452        8.43454300227637        7.87495921331189
C           16.64234116957082        9.71435396479226        7.36554698703574
H           16.67774960451332       10.56978471500482        8.02950097902086
C           16.51031608276983        6.34733423181169        4.71417086497024
H           16.39559454585997        5.41396662002567        5.26507961099125
H           17.43585213483776        6.29571423912610        4.13682490297102
H           15.68006520584182        6.44615783466325        4.01354352017089
C           17.07353737266763        8.23634698048416        9.34583792008996
H           16.67012097224733        9.07215734819990        9.91755453965662
H           18.14560032086877        8.17013949500010        9.54311763280848
H           16.60659744309458        7.31497179000391        9.69546379929796
