348
 energy: -612.155345458967 gnorm: 0.000044499764 xtb: 6.5.1 (579679a)
Au          15.22783227022850        7.26298678840018       20.43032684449956
Au          12.29424454944830        7.09099249578071       19.20698036675845
Au          14.77846570889883        5.50104151459735       18.06769932057826
Au          11.96607620049636        5.36461704516206       21.58537262404962
Au          16.66541809915477        7.59763394669776       18.05993443311910
Au          10.48850804531339        7.76825968655937       21.31204982759442
Au          13.05478540083181        9.13170549850480       21.23701279142159
Au           9.83533347940942        5.58136663304210       19.73747127448289
Au          17.21464256190560        5.33942110061343       19.57734375396421
Au          14.09293420368098        9.20965432776772       18.48372032161451
Au          16.35103606507150        5.33455687077061       22.47127949257621
Au          13.98857296498765        6.96694921582895       22.98238178734483
Au          13.49308774237006        7.49705971165102       16.25493000200563
Au          12.30775381563343        4.17951111741433       18.86176458007429
Au          14.53566184699150        4.28022209934222       20.59389256520996
Au          10.88589701806074        6.23120122361536       16.78367761110215
Au          15.56909846393739        9.29117950169577       22.39283016743987
Au          13.95410331541126        4.02285399685283       23.28692106770211
Au           9.44974879711030        9.64669746472983       19.36006058256304
Au          15.85756023078014        9.21678978353344       15.86422263826212
Au          11.23981382189065        9.75937802760568       23.35450592642836
Au          17.96632574060682        7.68842118360859       22.66036123432491
Au          17.61783276547192        9.35072164858403       20.24960247990619
Au          11.83179268897086        5.51085034153713       24.64579343348078
Au          11.46443703714944        9.12260409979704       17.34799018233307
Au          14.79408954493678        5.98558804773978       14.29809204845410
Au           8.70963779915412        8.04752114154472       17.10308483570266
Au          15.91254639116306        3.84555719227177       15.94670940948326
Au          13.04963818613081        4.42540323124636       16.19003116036231
Au          12.41147605846838       11.00255494854746       15.48174376318895
Au          11.19304778481784        3.04444566805731       23.06579173571945
Au          14.65038272983834       11.55789942455886       23.70380838285481
Au           8.83040411595239        4.17303701563033       17.53046863035710
Au          18.51719295623719        3.70446966539085       21.50105091647550
Au          16.47575255807247        2.99108384966215       24.38740741223824
Au          10.38885892710257        3.75531779238868       15.21559358677315
C           15.70568694367607        2.60202704416395       17.47495159593221
C           15.79286418462727        2.01646949864300       18.53605003951062
C           15.94914956243215        1.37952896832051       19.79822988983407
C           17.21722806030897        0.95218328586576       20.21294578234637
H           18.05513582905863        1.03233349181615       19.53186076801362
C           17.39664934196852        0.41765575905125       21.47908021305128
H           18.38209787227603        0.08851661536324       21.78824459196904
C           16.31767763286092        0.29063944883542       22.34833648459870
H           16.45924573476301       -0.14157708080244       23.33165154478786
C           15.05289221471533        0.68702829512734       21.93561859073205
H           14.20341910130436        0.57061525958923       22.59866199560149
C           14.86671100773153        1.22876168565883       20.67299676499101
H           13.87028225931444        1.50174207688183       20.35186723598994
C           16.64807324406301        5.08458611802023       14.48585620837281
C           17.69831540344932        5.34009853235851       13.91017262751877
C           18.90324670071303        5.64983415274609       13.23698532027131
C           19.83461233856448        4.64697697129814       12.94584340014913
H           19.62189268835446        3.62364166368992       13.23188357455264
C           21.02346164671567        4.96664781580726       12.31261844494052
H           21.74564107814696        4.18654058213131       12.09869619946005
C           21.29356987271805        6.28139037331505       11.95330704244436
H           22.22745703479342        6.52848937345448       11.46166865721258
C           20.36558912707907        7.27943155219635       12.22468579018360
H           20.57509373344584        8.30539549869891       11.94333305139542
C           19.17682689617535        6.97155289296508       12.86301825891012
H           18.45373438538352        7.74833675415286       13.08348085070764
C           13.31111444973265        7.13775267123321       13.64916889601657
C           12.59451374736817        7.89909636850613       13.03067622849649
C           11.78054214081222        8.78837722533264       12.28048611922065
C           11.95143388659525        8.90327439244556       10.89718119559072
H           12.69682750807471        8.29478658923396       10.39829174558101
C           11.17277257519580        9.79076067528564       10.17312687757870
H           11.31133899329344        9.87586301992910        9.10100316841809
C           10.22029883192424       10.57422162300010       10.81313640714179
H            9.61658329238005       11.26963399614755       10.24143429974008
C           10.04240732243330       10.46234467658973       12.18595252690821
H            9.29713535506435       11.06618650889000       12.69142848066492
C           10.81318594663370        9.57348970519998       12.91515430854216
H           10.65292393570671        9.46186866535591       13.97922404732412
C           17.67789910565225        8.41356198943350       16.29639297355688
C           18.86399937214636        8.21502708384187       16.07871259362794
C           20.22749889572214        7.99749167823988       15.76704191307457
C           20.74810924188085        6.69820569771647       15.72889192404984
H           20.10971505885628        5.85776866117292       15.97608767847050
C           22.06720633646147        6.49315581895116       15.36501541934849
H           22.46428017473508        5.48572192156255       15.32296562371200
C           22.88430137217042        7.57061588341220       15.04471207666967
H           23.91428444395643        7.40178162530168       14.75233159562073
C           22.37865811414384        8.86380092596107       15.09992988182764
H           23.01642487899847        9.70584680324412       14.85533955846340
C           21.05940033328071        9.08094338914894       15.45964285527073
H           20.65785676008560       10.08710271735503       15.49311728724586
C           14.39997693998925       10.26397168898369       14.96699337676948
C           14.05101207571104       10.85815585166491       13.93458862076297
C           13.90525227726137       11.40301411456070       12.63097481122584
C           14.65164287694300       10.84940031717028       11.58375007485369
H           15.32745155443849       10.02688034479699       11.78731648534953
C           14.51656745289452       11.34820127034031       10.29973131191112
H           15.09437215474288       10.91456170956094        9.49122751761954
C           13.63962602772942       12.39524978304159       10.04302154987565
H           13.53305783862396       12.77849622033896        9.03476147333052
C           12.89833219442204       12.94882701236627       11.07912646548836
H           12.21234653793143       13.76450973462159       10.88050760660693
C           13.03011603606076       12.45906061295652       12.36729178184796
H           12.45218587272348       12.88602530127317       13.17886667865388
C           10.58771645736751       11.39422639953382       16.12669473277382
C            9.40246103892400       11.44168567778131       16.39045418901542
C            8.03951509795166       11.37605660110387       16.77417472532285
C            7.14174947155121       10.62096816140006       16.00619831659636
H            7.46496870475490       10.21337631228445       15.05589115402543
C            5.84782764493701       10.41218942768471       16.45677482287321
H            5.16032930786514        9.82118521254706       15.86166953154285
C            5.43331673238666       10.95105892259426       17.66841699475806
H            4.42405426959901       10.77570662282203       18.02264871067315
C            6.31137720335691       11.71807837738447       18.42365838200293
H            5.98483447156210       12.14582569245102       19.36487519872736
C            7.60815589524606       11.93396839752787       17.98405747309247
H            8.29171987848132       12.54012182177025       18.56590775584650
C           16.51390923733324       10.65800708825391       19.24323515202229
C           15.99790701920758       11.40479899498506       18.42776005863161
C           15.53356213075261       12.32200567275703       17.44352905865149
C           16.39574190829681       12.68349010526188       16.40099202068799
H           17.40409098395202       12.28665614488672       16.38291566045404
C           15.96291439882779       13.54012091005137       15.40202561009720
H           16.63497142999595       13.80652367047489       14.59400058972695
C           14.67430300396661       14.05642307521465       15.43138970292387
H           14.33919941258625       14.72854018861932       14.64996270712643
C           13.81347226286217       13.70727506302041       16.46587247144199
H           12.81285658726733       14.12148169413153       16.50427130689389
C           14.23500757300106       12.83912779861912       17.46224924388799
H           13.55974938286372       12.56648226397274       18.26249259907895
C           19.00811104141521        7.94909567555565       20.90666610943635
C           20.01639593433213        7.50559434362668       20.36752764451002
C           21.20483930812425        7.03416012782667       19.76343743191023
C           21.63905555567339        5.72105437136200       19.97413889062798
H           21.05482000036991        5.06098179351252       20.60458837558510
C           22.80842739579943        5.27171057076175       19.38503109064289
H           23.14237256845120        4.25498063922911       19.55848789047488
C           23.55896486582996        6.12405467098807       18.58398896108043
H           24.47433898439655        5.77021696482862       18.12386232760066
C           23.13604863268218        7.43096427213491       18.37530314973241
H           23.72178128746906        8.09613934418236       17.75094077158936
C           21.96655440344406        7.88853387293747       18.95676141322209
H           21.63007321314317        8.90517606045915       18.78894706535615
C           17.11893926952661        7.24282927728365       24.39211696090222
C           16.60133810948130        6.94554127901798       25.45057119453941
C           16.04942393132185        6.60071508181637       26.71212835043610
C           15.11632349618886        5.56401661941755       26.80901099288332
H           14.81861285617698        5.03261326413155       25.91361162654636
C           14.57242848753244        5.22050662578941       28.03362061935627
H           13.84980334273890        4.41398760517901       28.09390903809082
C           14.95107552504580        5.90829248095419       29.17957858408070
H           14.52368037215684        5.64137141446532       30.13924279463414
C           15.87987974103392        6.93810377186311       29.09375740189523
H           16.17768639966850        7.47385110364111       29.98822805161135
C           16.43031084371020        7.28504746399037       27.87111480209346
H           17.16038055514662        8.08337993515838       27.80503242959054
C           12.81869823096608        7.22917045746473       25.01878196391529
C           13.11720175788169        8.24505647024804       25.62865253146358
C           13.44001470408239        9.44579127442758       26.30740611159607
C           12.42318759640692       10.23389364641807       26.85924212886744
H           11.39470055791823        9.89883637113854       26.79229722805087
C           12.73116723328477       11.43248777628894       27.47913987136618
H           11.93765963315887       12.04164208370788       27.89712935028248
C           14.05061819154661       11.86055932944381       27.56156417478920
H           14.28670484623185       12.80104307186172       28.04574906253583
C           15.06656171840114       11.08199449749059       27.02127740882045
H           16.09759688032949       11.40979127337702       27.08676451241188
C           14.76781135893094        9.88151283811333       26.39421129229113
H           15.55828680903091        9.27433503476746       25.97179059741280
C           10.56003675878196        3.89148987604292       24.82658032787495
C            9.67154584892270        3.62267783797275       25.62696993713377
C            8.63801866366826        3.29515412682143       26.53513761836401
C            7.67834347073232        2.33848984321803       26.18358496554321
H            7.74433521269646        1.84838568263486       25.21932485135775
C            6.65602230809219        2.02534688960898       27.06261181056523
H            5.91556872664752        1.28390800536794       26.78364534710144
C            6.57603110161379        2.66016109739675       28.29621906178453
H            5.77268425854247        2.41501363989996       28.98131813138575
C            7.52643535969042        3.60961999441503       28.65054207525875
H            7.46380006105071        4.10552816811456       29.61269243608239
C            8.55502688753991        3.92843793418624       27.77989014873773
H            9.29534251280679        4.67190550281200       28.05141919821300
C           11.41154348005997        2.14989298024509       21.31225281785169
C           11.34349475974282        1.75060898244463       20.16407476171832
C           11.16634521445639        1.28517622647615       18.82805614418629
C            9.87241663616341        1.02904728858899       18.35680941667792
H            9.03335061761108        1.10248359686859       19.03723631285800
C            9.66541412816865        0.68015527750462       17.03201086340709
H            8.65930612299644        0.48641157742969       16.67817441265583
C           10.74246988264707        0.57336485397428       16.15721674452415
H           10.57776138857338        0.29496686327191       15.12332163705264
C           12.03244184079138        0.79238034512067       16.62481285980792
H           12.87723559383071        0.69476545563069       15.95252634748272
C           12.24662168642605        1.14518330474351       17.94722709989622
H           13.25691190376191        1.30544903447240       18.30015870307541
C            9.84459322564096        8.31650291160579       23.44019392820073
C            9.00910071000448        7.57739315089242       23.93964004826271
C            8.00429062107439        6.75525569861331       24.50909158493907
C            7.57022514869160        5.60566370641950       23.83959837396689
H            8.02094703150926        5.33530135125392       22.89097829054703
C            6.56167788008228        4.82895463852464       24.38250795727717
H            6.22329771372027        3.94438324490369       23.85662581190586
C            5.97883698866992        5.17890429915314       25.59374518037065
H            5.18900599749049        4.56550991896600       26.01200304565599
C            6.41865910885714        6.30830144806856       26.27197475669199
H            5.97284622491126        6.57737279276620       27.22304178486446
C            7.42423829991065        7.09524750672213       25.73619064976376
H            7.76614961002147        7.98030650539615       26.25998192443888
C           12.45722853134541       11.32351708643557       23.64879539411091
C           12.64386861095244       12.48140856085313       24.05633236265461
C           12.50298498298623       13.82699735757476       24.49448170374188
C           11.28148869610258       14.48019599383169       24.29223119339800
H           10.46775048562944       13.95145310832375       23.80977696543508
C           11.12307756588218       15.79333321653809       24.70061750776420
H           10.17592567844379       16.29581147233686       24.53918235588198
C           12.17211047881268       16.46884669993000       25.31258047542601
H           12.04394876451747       17.49785373245489       25.62819667179103
C           13.38473873197671       15.82382439210108       25.51965117741782
H           14.20415598129874       16.34817181291979       25.99834297739021
C           13.55100245371679       14.51035636681686       25.11484446322710
H           14.49520639838394       14.00225886231997       25.27501773517606
C           16.61406537808460       11.33268952716281       23.58020821950713
C           17.80522052327771       11.11461045948557       23.46198873381115
C           19.15822950904897       10.75186292519305       23.24526696449906
C           19.84102385749669       11.20940775889620       22.11154593601829
H           19.37133661626315       11.94215297678669       21.46614447001660
C           21.10524291023736       10.72455616521862       21.81967674800927
H           21.62496408172532       11.07502485681017       20.93493135352317
C           21.70401008266618        9.78305392256167       22.64797628476514
H           22.68810558138379        9.39751962169925       22.40763771040064
C           21.04105100050205        9.33693346626473       23.78388094793750
H           21.51026832961247        8.60837675706976       24.43566610262297
C           19.77490495358733        9.81478443641335       24.08719986832129
H           19.26241465327906        9.48222635390691       24.98169958843205
C           10.81861582138702       10.95430252712491       19.93187782469035
C           11.63665079504959       11.78794372063927       20.27234582499841
C           12.51138056233702       12.83660885638729       20.66252401623451
C           13.89128747689610       12.62517164955939       20.75460626105631
H           14.29645470408394       11.65188607848680       20.50759338530917
C           14.73987902328862       13.65257850142203       21.13544235804333
H           15.80814414781899       13.47626062675203       21.18234539343761
C           14.22052748452393       14.90505722551922       21.43885796269750
H           14.88181707189932       15.70805894858102       21.74284973222668
C           12.85197294175686       15.12514857462965       21.34893312222385
H           12.44508178767397       16.10173018931592       21.58682421448336
C           11.99988135893127       14.10391039562129       20.96147738781301
H           10.93262428898540       14.27873793580964       20.89064728573144
C            7.97719947766593        8.23991765091009       19.03760354713675
C            7.10309640476970        7.68483881484515       19.69458474003664
C            6.05872562753822        7.07200068870356       20.42637757850506
C            5.81745642475888        7.43761521366943       21.75536802608112
H            6.44598389568201        8.18429320492335       22.22630974223207
C            4.78280994061549        6.84540199537048       22.45944786481916
H            4.60146680174089        7.13007526166804       23.48971285771255
C            3.97955440357693        5.88874335818876       21.85225481128852
H            3.16901458073969        5.42955536777724       22.40636603542212
C            4.21578436738755        5.52046179802907       20.53246861898637
H            3.58229175794998        4.78223752587297       20.05361729714689
C            5.25038724009870        6.10353157358775       19.82005507086617
H            5.43892916996448        5.81842939755429       18.79136545235972
C            9.07403477138407        7.59519751248116       15.21289635977548
C            9.16573602023938        7.23845739558186       14.05589485429991
C            9.23042769363191        6.84232180673704       12.69437250697994
C            8.33662883553960        7.37111521198709       11.75781246916577
H            7.59145504937698        8.09057276476615       12.07752805376467
C            8.40901485568462        6.97748641728397       10.43222697814907
H            7.71428401594669        7.39139127656424        9.70972482534096
C            9.36732443433438        6.05740498766996       10.02503402534823
H            9.42104875072187        5.75421093257979        8.98566857671909
C           10.25747123680946        5.52828749491633       10.95107228576340
H           11.00892743676561        4.81227033800240       10.63694778634954
C           10.19215392981802        5.91725383244266       12.27742512569695
H           10.89657050525984        5.51961729917072       12.99834380485179
C           14.70543831782546        2.25935062796313       24.95471275171747
C           13.67402798534253        1.74150148073936       25.34268962047404
C           12.45868511112884        1.15379571257047       25.77585584514554
C           11.74230369205337        0.31482681908822       24.91208154660477
H           12.15401469788002        0.07329569633268       23.93916170630205
C           10.52680575161616       -0.21734680977185       25.31077953071385
H            9.97643125895078       -0.86536056165248       24.63767096187524
C           10.01538419128013        0.07376131727987       26.56870273233258
H            9.06323156890568       -0.34224385228671       26.87747710797449
C           10.72376927520977        0.90208711316003       27.43139385285019
H           10.32106651883455        1.13245597733586       28.41150292994880
C           11.93635917400567        1.44366090794884       27.04102944044309
H           12.48588210530659        2.09845019404816       27.70779363148806
C           18.39351793484694        3.61988178677431       23.50688295797153
C           18.57173360959233        4.02465226434229       24.66387846706397
C           18.96498650288885        4.63020408107068       25.88412845916004
C           18.44136005346023        4.21620867440089       27.11192012930895
H           17.75292530083123        3.37940690703631       27.14179141438416
C           18.78876835706266        4.88041823662809       28.27561519821299
H           18.37201400190195        4.55987173563157       29.22372583899021
C           19.65819607380334        5.96302701873130       28.22904023825513
H           19.92145432305656        6.48668498904339       29.14076621260378
C           20.18748696037531        6.37629828736414       27.01222103969413
H           20.86444289852747        7.22250651818645       26.97428771041606
C           19.84822164815246        5.71668309714342       25.84420458255638
H           20.25073206979247        6.04199134262517       24.89170364082093
C           18.81505198809778        3.76653998318965       19.50300929956283
C           19.27342145774663        3.38411858710557       18.43683004935980
C           19.80109351500101        2.90075778075186       17.21624126246424
C           21.07354293914004        3.29118684915215       16.78114770222140
H           21.65812870724296        3.97306156702612       17.38814219695712
C           21.58479143853729        2.79269372880946       15.59493409164327
H           22.57681251811519        3.08551288472409       15.26909687123663
C           20.83498917691128        1.91310760566488       14.82234638791673
H           21.24212070160070        1.52168913047135       13.89710794836809
C           19.56947507369935        1.52466601500892       15.24624796525887
H           18.98583006310503        0.83382670355121       14.64780125930077
C           19.05521778006955        2.00637848802735       16.43738028746964
H           18.07972197595799        1.68591479702806       16.78168296271063
C            8.43290943724618        3.91024751832500       19.51862564914311
C            7.90684168615904        3.22907240209653       20.38573465051906
C            8.40958864037979        4.24249404664529       15.50854957398152
C            7.49390661996313        4.67823502412369       14.82298505366185
C            6.49143404940321        5.24218612336843       14.00019666949622
C            5.86324884128898        6.43046995120259       14.39491567619037
H            6.11568017917949        6.87407506513226       15.35147132471643
C            4.93878941598633        7.03661581918626       13.56295745979420
H            4.46110634239980        7.96004281216226       13.87146260394791
C            4.62665301674295        6.46820542093104       12.33366255963531
H            3.90636563820451        6.94865282415539       11.68151295707989
C            5.23933161476888        5.28474608479873       11.94057975092727
H            4.99614050588619        4.84220257883216       10.98106775733834
C            6.16596489094089        4.66985115366005       12.76533146037891
H            6.65466739954509        3.75337825014700       12.45591601649106
C           12.12252502458298        3.31934898455976       14.29955458703614
C           13.06556755426206        3.08023035665256       13.56337234876415
C           14.26273488897299        2.91580435920219       12.82484261295366
C           14.57354181487910        3.80297770309564       11.78580931275018
H           13.83583168005173        4.52970087897671       11.46674912700278
C           15.81385789667696        3.74286503500278       11.17092352706613
H           16.05273463984014        4.43701925004511       10.37308573032558
C           16.75366591410014        2.80540071385697       11.58004436275613
H           17.72691302899837        2.76990186090968       11.10411431085324
C           16.44641892320727        1.91356812808677       12.60053407372630
H           17.17925422489322        1.17994012216068       12.91776663631799
C           15.21006803337238        1.96298974401629       13.22283193189035
H           14.96643990102107        1.26906877163011       14.01871719404430
C            7.28985568993322        2.41193309862680       21.36282477988177
C            5.95027248779166        2.61516723885950       21.71705167763609
C            8.00687203571383        1.37364469435517       21.97108176511199
C            5.34772617784873        1.80085975385634       22.66200138717124
H            5.38926664017949        3.41110010084681       21.24197331003877
C            7.39777961336889        0.56811588074934       22.91772413986292
H            9.03792671546276        1.20045695276291       21.68965738657749
C            6.06849354770454        0.77762932255758       23.26642830593576
H            4.30896145636167        1.96251409880196       22.92758722673414
H            7.95912067519198       -0.23598813075405       23.38041307982725
H            5.59348231611107        0.14100452823208       24.00404342656757
