396
 energy: -604.201966139816 gnorm: 0.000690947674 xtb: 6.5.1 (579679a)
Au           7.49848821271291        6.50412678722935        3.47835410658862
Au           7.82925426420650        9.62921328539153        5.00071365570322
Au           9.46175915520444        7.20505441086901        5.82731153958623
Au           8.33930653984652        4.98339798726863        7.19100459335390
Au           6.58336228761375        7.00231749516765        6.34836270774412
Au           9.18610635331434       10.35661199575809        7.34029546677497
Au           6.01439282971147        8.88921135964704        3.10327981239036
Au          11.06601322657706        9.49682771394055        4.98511905056953
Au           8.74442908335180        8.72221025886746        2.47774187438985
Au          11.14203640565692        7.15008834236271        3.48114902996584
Au           6.86175847127255        4.02402566478173        4.60505865050695
Au           4.32664540710650        8.62424805133390        5.63617947700552
Au           7.38736170668839       12.16328808436075        6.02467418840488
Au           9.05849059195135       12.18733409969455        3.56843148433054
Au           6.42417534100356        9.90696999682503        7.46439808387367
Au          11.52207783506815        4.38114055369935        7.02248820064493
Au           9.55553563389206        4.61837683128712        4.12655436828304
Au           4.46654267423472        6.05692376469901        4.57771886812605
Au           5.48265663673295        5.88731138114464        1.10301179715287
Au           5.69461802206385        4.06414482645664        8.28668248230052
Au           9.14729747342723        6.62177679425543        0.45270126800331
Au           8.45009974904150        7.49760773947392        8.42615784783294
Au           4.07649312731938        6.40212788287766        7.39404227189577
Au           5.54937795457280        7.42081863572802        9.80621709756308
Au          11.41178005651435        7.58428255584825        8.92955107044474
Au           5.35199475021010       11.67333675611388        3.76972626172532
Au          12.38224533594027        9.73366411385572        2.21522630077502
Au           7.82616498647457        4.24436337366296        1.90734455309339
Au          12.21616362679926        7.15022074503883        6.10663565014500
Au           1.29876376080300        6.29139230753504        6.43258927143270
Au           2.35152564001922        7.96775068235022        3.29710699763315
Au          14.59096602583620        8.42181877660235        4.96142308366945
Au           8.81525508070859       10.80918771640695       10.36218370317478
Au           7.97530940323691       13.68228158178352        8.48497798070806
Au           8.08667633071008        1.43861179018877        5.77575326787695
Au           7.80932699547802        1.31387945079330        2.14768976750857
S            8.05707719956387        8.56582890830420       10.63067921319595
S           11.61274252109939        5.25852906887765        9.24352951812063
S           14.62802163975019        9.35697016865420        2.78278606358626
S           14.58016877089983        7.23947133904952        7.00101183392491
S           10.24252434621021       10.51768454488345        1.63688053748834
S           11.38699693978724        6.43845402377659        1.12686114112681
S            6.97408296759508        7.08196542094537       -0.33521233894942
S            5.64108462510647        2.74019871138125        6.35444416480898
S            6.00437135071812        5.14538035932135       10.36219611698913
S           11.75553131294722        3.73132253040905        4.75008700254183
S            4.06817736540164        8.22702644774238        1.71541106916988
S            3.51134607319198       10.86103387328914        4.97681383481361
S            4.24092362480136        4.55412320942018        2.63547696106704
S            2.09287460769892        5.07675353493415        8.27587875108601
S            4.69776675085804        9.54153440010159        9.16060235639886
S           10.89275643966390       11.95862676852659        5.06925641280517
S           11.06437691543062        9.90202555707635        8.91542690778862
S            7.04013870055618       12.43603444182757        2.31000590386279
S            6.47060993345576       14.32625605575313        6.79552903130788
S            9.39741540684236       13.10029575620288       10.27000137044254
S            9.25693381009730        2.69266035548002        7.42779699783542
S            8.46405642096677        2.52532778172953        0.24274171890176
S            0.44278599218554        7.45009921955045        4.55572819981094
S            7.09872796162032        0.14954468717047        4.05777684104946
C            7.19716598520871       15.72509955070757        5.90449195068979
C            7.30802544245039       16.94922293913029        6.81653496317216
C            8.71133385775753       16.88455741564079        7.43580721758238
C            9.55089486611808       15.97456110440771        6.52137401828139
C            8.62066203613868       15.52740018645416        5.38847120591303
C            8.57423730558558       13.84596233409440       11.69482391825943
C            8.84060887278790       15.35056943682733       11.75647964316153
C            8.73277119133983       15.72013054946400       13.24613088499347
C            8.77506458992972       14.39382086316147       14.03219796510039
C            9.13613903411563       13.31083807716550       13.00944201371395
C            6.72998111659718       14.21749093286125        2.20031679612335
C            5.58481154833346       14.46143883519572        1.22063592987713
C            6.23893685519615       14.33853926340023       -0.16053605332473
C            7.71080981262592       14.75074203994827        0.03268919976011
C            7.91817496628588       14.91955279520565        1.54628517756820
C            3.70344585801233        9.59203863548418        0.58982071186229
C            2.78409340296967        9.15951154550778       -0.55043678765273
C            3.06579958223042       10.19040780673731       -1.64649167136371
C            4.56506701092634       10.50854534652238       -1.52099685680993
C            4.97705745629401       10.09817902623289       -0.09644572488551
C           -0.05374614273719        9.04850050365364        5.23434741866136
C           -1.53503075844475        9.05133780807011        5.60558202785263
C           -1.89846556362139       10.54078311417110        5.66589544162923
C           -0.90508220129637       11.26265208223380        4.73155679392190
C            0.06898366972183       10.18850958226131        4.22601829869513
C            3.44876746363742       11.87825729692508        6.46608870123176
C            2.33330814170286       11.41584050161565        7.40787231579303
C            1.75968644713898       12.69176399665653        8.04977078078325
C            2.55276596729901       13.86818164783339        7.45711953007481
C            3.12907657054984       13.33535213976657        6.14442343356003
C            5.11694349190540       10.61390451705497       10.55001724124606
C            5.03519641995944       12.09678952379203       10.17898222305061
C            4.47481741506417       12.82068401625692       11.41614595094209
C            4.25153153359730       11.73709456490291       12.48321535412334
C            4.12277492335179       10.43243589636329       11.69468151353687
C            1.30678855624886        5.82940786186685        9.72710838583009
C            1.69763079811701        7.27817504967031       10.01080259015231
C            0.69950955828866        8.13062263675737        9.22872424878143
C           -0.58798907539207        7.29472724554135        9.15204510721241
C           -0.22001935782399        5.86992328189083        9.60197759092967
C            4.51925633290438        4.59339239880910       11.22216940511125
C            4.20156540548136        5.43575967835077       12.45292485091472
C            3.28808647643779        4.52662541666792       13.27966729510182
C            3.76021034006438        3.08889609718483       12.98635175785019
C            4.69600955848264        3.17520438248956       11.76723378141075
C            3.93912035363660        2.51856939560343        5.79587969644272
C            3.03852059894522        1.91308337437602        6.86782161518438
C            1.90704013644600        1.28022398083113        6.05502529268484
C            2.58717293833378        0.73566550324690        4.78814062686228
C            3.88435052681910        1.54541300781528        4.61281114153318
C            2.53543413287456        4.70121504479188        2.06588674691587
C            1.52878853366683        4.19094554979733        3.08994863150824
C            0.27016233134049        3.92866540145847        2.25835361993823
C            0.77281998730925        3.54221082334228        0.85246539806823
C            2.28380348836784        3.83309275493605        0.83420562040167
C           10.04082807176995       10.54975448174737       -0.15647423732285
C            8.56554744205660       10.62185927793972       -0.54464097870054
C            8.56062448516492       11.22388814699934       -1.95597107127123
C            9.91358486655272       11.94593965886887       -2.12577195560949
C           10.65449325299674       11.79632553854980       -0.78883515753256
C            6.87485346725876        6.26583766913025       -1.93807233761739
C            5.44528584642760        6.28076701754520       -2.47378930759953
C            5.60533283916981        6.12526436377578       -3.99168318980085
C            7.02190865439962        6.63493359385221       -4.33060447656608
C            7.67610480405951        7.02253387990834       -2.99576651805546
C            7.11722870099083        2.32100645683595       -0.94816664107560
C            7.17958182246182        0.91702168018429       -1.56383825391817
C            6.15064965885951        0.10122392256280       -0.78348401655403
C            5.01390541638722        1.09163106636057       -0.52278931496866
C            5.69442635335046        2.46210308101003       -0.37953630412090
C           11.56238135439683        1.93951731821429        4.79036609762548
C           11.40254806657204        1.34747074409156        3.39318697852293
C           11.91847507284497       -0.09597577981260        3.50389226687126
C           12.69082821058699       -0.18428337537371        4.83556588092964
C           12.80493842033620        1.25455527179569        5.35078531415498
C           16.77538881017538        5.59410444702854        6.67283207912549
C           15.25429177359037        5.63636497629879        6.51992914159966
C           15.03027397806858        5.19921967627926        5.07554751574189
C           16.06038032448748        4.08845199082397        4.85526216726277
C           17.21702408154045        4.38485700944520        5.83205870426627
C           12.52350399400637       10.73012508591005        8.25412541111597
C           13.81086940187916       10.33110804852544        8.96806958504020
C           14.74159524076817       11.51293471949849        8.68794701888483
C           13.82978724797174       12.75037874764739        8.73143905273623
C           12.40527371262808       12.24816041285807        8.43251715201052
C           12.28119848278100       12.63534384280164        4.13575091014102
C           13.62747926842271       12.35394696257312        4.79139297234288
C           14.55611189980566       13.39987951655288        4.16793058768678
C           13.66404599044961       14.62033905148546        3.86312643902838
C           12.21013470439450       14.15992291210479        4.06825852930724
C           14.98352472969927        7.84554606866186        1.86012015684038
C           16.47808247832542        7.53745848513284        1.85376444851882
C           15.56227751647132        6.99971213890392       -0.35396811119114
C           16.64044125800437        6.58356976757671        0.66625764286790
C           14.60959049609225        7.95780359607660        0.38228989863257
C            9.19162560613508        7.82143641852376       11.83425051483939
C            9.11677996128045        6.29088789763699       11.79424562323231
C            8.25770460916691        5.85527157589117       12.99294739716841
C            7.71773421416987        7.14934459831047       13.61417683696900
C            8.75917208385257        8.20750067400556       13.24839053889245
C           13.34130394669886        5.09777662059772        9.76064859961362
C           13.79844133577743        3.64676953959834        9.64134150222897
C           13.24688896493637        2.95089612129573       10.89468333978938
C           12.96159613474082        4.06908693316586       11.91682677658441
C           13.43112775935423        5.37411184353324       11.25941003189165
C            8.77191282638680        2.02719402955030        9.03404120312937
C            9.61165906102270        0.80374755266304        9.40241068507415
C            9.57858157149605        0.74230750573604       10.93938190137190
C            9.07781475599160        2.11799721677255       11.42362135955540
C            9.01366346829403        3.00610308755242       10.17781284630616
C           11.71198964978160        4.66217306350028        1.10658602038744
C           13.13755640526113        4.35495896772888        1.57780475575249
C           13.65486418161676        3.21813661847690        0.67864524330066
C           12.48565733042006        2.83343296509451       -0.24049089642750
C           11.61233858053924        4.08703321017583       -0.30436155213866
C            7.67410186269477       -2.18612776369582        5.34485672949649
C            7.92139751269930       -1.46526547336702        4.02261405537355
C            7.21572155344011       -2.35392192495437        3.00126623565312
C            5.94490513240119       -2.83143103451185        3.71973733854848
C            6.23990963190944       -2.72250358391697        5.22964680758882
H            7.49858497185018       13.65782478211058       11.64974434119317
H            7.79357189740527       14.18336374254240       14.46626207033639
H            9.50275617958545       14.43203109621152       14.84520566483518
H            7.93386668844686       15.68150218278440       -0.49337203941933
H            8.37564298540567       13.97775045464043       -0.35891403437808
H            5.71949370058345        9.29707570544696       -0.13886523002265
H            5.41448102517494       10.92999707379404        0.46074227127867
H           -1.78869764257387       10.91163559421010        6.68864956634966
H           -2.93227229938226       10.70693204517195        5.35642926845004
H           -0.36432601412545       12.03807379482997        5.28064097759112
H           -1.42155676924807       11.74191413274210        3.89718716271613
H            6.52656946971221       16.95828747557085        7.57767736867983
H            7.20567373485587       17.85398702780481        6.20933264205300
H            7.79846526766610       16.25047122392700       13.44589157392531
H            9.55726513897672       16.37427400887711       13.53855919937698
H            8.86950697843848       14.50014195652050        1.87778103121559
H            7.90059725985274       15.97919660629412        1.81947996677350
H            6.51604864960854       14.61952901440440        3.19132505773974
H            5.73614407093864       14.96662017996572       -0.89828254094741
H            6.18342139350273       13.30168138274745       -0.50323295749949
H            5.19153948294977       15.47172540897210        1.37100003537940
H            4.76974426558439       13.74916660732446        1.35537679570085
H            8.66209623056698       16.46289694537416        8.44300097372147
H            9.14722725914187       17.88263284994913        7.51575889242348
H            2.47359304515453       11.09230878373507       -1.46661825214376
H            2.81444398697056        9.80783775493209       -2.63748088012598
H            1.85189699021338       12.66531058820517        9.13788378048143
H            0.69834851559511       12.78912130207204        7.80635368026000
H            8.76781001756066       16.16026512171047        4.50756021900373
H            8.81049694476730       14.49466968303654        5.09537883318372
H            8.12959036553852       15.90558371439308       11.14119960478522
H            9.84713348026196       15.55672615408914       11.38274217108752
H           -0.22636947930646        9.83740320006751        3.23405474581611
H            1.09511678274642       10.55997153280451        4.16993557976407
H            4.75583142336430       11.56918206364929       -1.70010412001470
H            5.13885555578803        9.93666581201135       -2.25542122379650
H            1.73607720273407        9.14663274346370       -0.24624396988782
H            3.06019973036025        8.15647548979792       -0.88869877118377
H            6.50532427542223       15.91147441257700        5.07869729768156
H            0.54922570132084        9.27134655550939        6.11822307778018
H           -1.72067284528906        8.54294094505406        6.55283947287378
H           -2.10701390587579        8.54356152692248        4.82419086714851
H            2.72734625430892       10.72033417050142        8.15401637155292
H            1.55820657321716       10.89455463130940        6.84298949456970
H            4.41277633166306       11.82501830583937        6.98072972000586
H            3.37117758637166       14.14984959402175        8.12656897197703
H            1.92203428578641       14.74504843110857        7.29994126848992
H            9.91262294558049       15.10603123418064        7.07846786372686
H           10.42280042465747       16.49902201128781        6.12480630467975
H           10.22116297790715       13.20249672462185       12.92827629686606
H            8.71009749578325       12.33870263720912       13.26502397084978
H            2.38688192565425       13.38941400622865        5.34336918977789
H            4.02341588961592       13.88141453870120        5.83621910051285
H            3.23719433266548       10.39978440489353        1.16033766253284
H            1.35565854397702        4.91445955253201        3.88778316149378
H            1.89038321586442        3.26425610840933        3.53926318778299
H           10.49590467429596        9.64890940500876       -0.57764961523121
H            4.97537868433235        7.23854636267764       -2.23379603599624
H            4.84174276324520        5.48382019991013       -2.03483996623275
H            3.36513994183104       11.93906334880252       13.08725381009339
H            5.11744310160934       11.68182367682636       13.14968334332722
H            1.08545739778734        8.32388036917161        8.22314080683523
H            0.53246554078238        9.09615125962113        9.71005689932714
H            2.25023077975039        4.65403715927699       12.95812539868400
H            3.34450481584963        4.76098274609417       14.34434303172421
H           -0.33517713853650        4.83786990237781        2.20603278377226
H           -0.34104372973677        3.13884913532158        2.69908016301158
H            7.23466824127147        5.23665614013302       -1.86006054365906
H            2.72582189697658        7.49468576678991        9.72310484979005
H            1.59549294293971        7.46943618792741       11.08383566575302
H            4.75161259724297        0.87998244969413        4.62780951264278
H            3.90765853924994        2.09471609208504        3.66763581817161
H            1.60241393718869        5.17871990200369       10.55369789752043
H            4.35683348552086        9.55208222520153       12.29613665721889
H            3.11099497359551       10.32173136554086       11.29411334418364
H            2.90554544120575        2.44179189172888       12.77597869911180
H            4.29191210075119        2.67256802544183       13.84501182961066
H            3.52959825577675       13.31024242960257       11.16788891098985
H            5.16543170422417       13.58741799434815       11.77476634443249
H            2.67741421827414        2.67303319129894        7.56550693396042
H            3.58302706543871        1.14990405955297        7.43046241629529
H            3.72322582535545        6.38008365996453       12.18713260986246
H            5.12054127837499        5.65609887504569       13.00157508192788
H            1.17240567763212        2.04622639650269        5.78868820906191
H            1.39511507861515        0.49324064227221        6.61182125373300
H            1.93376510916863        0.83403912205576        3.91842940772517
H            2.82264103411545       -0.32480973303372        4.91170518165101
H            2.31776009448474        5.74772958878300        1.83263942832102
H            5.73577342522537        3.02579195054948       12.07134350257138
H            4.45513575243558        2.42863885273856       11.00785667451983
H            3.67460720562907        4.61868970849519       10.53010154155671
H            0.25703340658255        4.12921712828905        0.08886058776465
H            0.58499868285961        2.48601887927750        0.64674689414366
H            2.85290528447231        2.90374990121601        0.92341615302518
H            2.59857813937334        4.33842637620358       -0.08116521254191
H            8.03152133638968       11.27369103493676        0.15344785413759
H            8.09588599656289        9.63655675175331       -0.51615514987654
H            7.72312858522612       11.91394442340312       -2.08016388381797
H            8.45638465630131       10.43464372110148       -2.70552235086920
H            9.77426392909532       12.99874666295520       -2.37983806265730
H           10.48992273608380       11.47983989733410       -2.92920250051336
H           11.73309365422940       11.69550112893819       -0.92183310175026
H           10.46671057108946       12.66185005044070       -0.14702288365904
H            4.37777290785991       12.23897185553857        9.32045682073044
H            6.02215413414730       12.47616972774030        9.90180137727896
H           -0.97965296546963        7.28797328261442        8.13285883475235
H           -1.36160119751456        7.71059496146815        9.80178321381393
H            6.12325586957380       10.37768042829676       10.90198769810820
H           -0.66306787137320        5.65867689513511       10.57983989774164
H           -0.58219258721639        5.11843851883440        8.89950468545751
H            3.54284761708415        3.49377183954531        5.49487874758210
H            7.30241157192648        3.08144320641898       -1.71175080791724
H           16.80450246117178        7.09012524437081        2.79425954104346
H           17.04393945533843        8.45899811798647        1.69223214500499
H           16.46964727365991        5.55380063891931        0.99349048391323
H           17.64335012548051        6.64124001177517        0.23890963598743
H            6.58150719174533       -0.23313016401785        0.16605339350318
H            5.81502023208917       -0.77854548570757       -1.33523683023550
H           14.15045691280267       13.49995656474133        8.00473023723741
H           13.86389624876558       13.20920685591437        9.72296935411384
H           10.69586377200581        1.67814294118037        5.40152358346772
H           14.75634064648748        8.98462421751926        0.03899342830697
H           13.56077918508091        7.69045409901716        0.22765031342774
H            8.86808531737472        5.31111076519855       13.71846896095004
H            7.44567609053520        5.19866284855319       12.67181979356948
H            8.73546799407007        6.76180373778401       -2.96139328768784
H            7.58225619959441        8.09839432329381       -2.82219949659278
H            5.14024207553375        3.23087594352605       -0.92490482649712
H            5.72500197677150        2.76069323424661        0.66844153460735
H           17.40111491970182        3.51972263860516        6.47396679142905
H           18.14132399821557        4.60574351126413        5.29383140288368
H           12.83804836464858        1.30647510045159        6.44068939944082
H           13.70296287749064        1.73713076073311        4.95415566481580
H           14.20676606219791        9.38573843553939        8.58934392891023
H           13.63017891786733       10.22913149409051       10.04152121503053
H           17.07357923506803        5.50164379856554        7.71858227382883
H           17.20635127336664        6.51611784952097        6.27328102752510
H           12.00336282051190        1.91342097703121        2.67917951394154
H           10.36178652131577        1.38748670249750        3.06145771968276
H           12.60842008327242       10.48675701059241        7.19002718333536
H           11.81578229785233       14.54648979142591        5.01193501747329
H           11.55127577215186       14.49245050689164        3.26339617395189
H           15.02405798451079        6.12220843207995       -0.72055707412447
H           16.01348760183151        7.49820872174591       -1.21495535695850
H            6.98321016647765        7.49217648760827       -5.00598293082303
H            7.59850800250421        5.84687059725908       -4.82142532312786
H           14.98740578709489       13.00774926698700        3.24273753534987
H           15.37530609141877       13.65766186175824        4.84179230923883
H           10.20023810467020        8.17416712462071       11.61099360399106
H           10.12200906409346        5.86552531597561       11.85726453056263
H            8.67661563277221        5.95139311201461       10.85541347767391
H            8.35795898994473        9.22089811896560       13.29177297519728
H            9.61975355794670        8.14368402307123       13.92187628173180
H           13.96535477937348        5.77855976463356        9.17783503703519
H           14.80085340053812        4.89612751573295        7.18691378338781
H           14.89248591774400        3.61624643718738        9.63589030625734
H           13.43988321651873        3.17973090643402        8.72262784972106
H           13.96436305654192        2.22635231447841       11.28560022098202
H           12.32571283744509        2.41458011352112       10.65396236659773
H           12.82024791558880        6.22755279104271       11.55669522311008
H           14.47208043621925        5.58470476862085       11.52393910269113
H            7.57950787489972        7.06053577713186       14.69303765908182
H            6.75657572227968        7.41263077968305       13.16201197309162
H           12.27594233830690       12.21893996106759        3.12394858750100
H           10.63634908775247        0.94734613562213        9.04814540396667
H            9.21761161741967       -0.10512847682305        8.94355663674754
H           11.73643123507325       12.48234733680742        9.26520035708488
H           11.98314033189729       12.70408756736990        7.53285106616913
H            7.71181932534576        1.75977834999662        8.99620700204778
H            4.44797004248581        0.83216543453317        0.37410659457176
H            4.32369265083616        1.10049984933383       -1.37101944745707
H           10.57353802447963        0.52600389776183       11.33506098127387
H            8.90475698480500       -0.04829377322227       11.27847763829007
H           13.47962477451055        3.89295202745635       12.86160543011576
H           11.88933731870682        4.12241452251275       12.12394322829087
H           12.56513168567916       -0.33730936784382        2.65736384724294
H           11.08598100185328       -0.80435549904505        3.50015598627287
H           15.23155551775800        6.03633811870472        4.40136657133972
H           14.00840870510603        4.85902958814251        4.89891452495380
H            9.74116904199010        2.54450027452134       12.17903864683343
H            8.08170470278353        2.02239550705077       11.86575039815924
H           13.67423438097859       -0.63857827197820        4.70026615743557
H           12.13215643980500       -0.79204054216570        5.55277603082609
H           14.44123898634067        7.01148271146345        2.31243747958930
H            8.21718879665043        3.74884637148442       10.24595332660126
H            9.96138377968057        3.53122713015773       10.03027829502008
H            4.83947156063399        6.69155383375265       -4.52550070765247
H            5.50576536993001        5.07415802690004       -4.27492312492608
H           13.82095966332192       14.96026796247035        2.83672987556477
H           13.89857336765763       15.45220213171869        4.53107473041354
H           10.99227806613305        4.15504147075576        1.75587777572631
H           15.18415314812649       11.40503219208382        7.69302130364901
H           15.55042935643309       11.57812991878041        9.41790824697339
H            8.18245330658144        0.49275436100803       -1.49986748109542
H            6.89233604265032        0.97024165834279       -2.61864035237919
H           13.96720139977882       11.33398564769579        4.60683944105375
H           13.55446394457135       12.50312197717316        5.87003869697580
H           16.40281874570906        4.06932801343040        3.81840409842638
H           15.61480425160394        3.11511562609711        5.08004493786515
H            8.98487535564638       -1.34823350736260        3.80794390341881
H            5.54070055111899       -2.02600293902178        5.69940466449335
H            6.14074544247454       -3.68881813638420        5.72842286544509
H           11.91332603195062        2.01022866622470        0.19767814683302
H           12.83000648771698        2.52393041671011       -1.22892063731382
H           13.13304171425395        4.07281725579003        2.63379173507487
H           13.76850766145580        5.23888483614366        1.47286370678157
H            7.79687181667766       -1.52198344120505        6.20190374362459
H            8.38625518630384       -3.01156791515609        5.44379478355848
H           12.01186698183368        4.80059577884054       -1.03002387802611
H           10.57804275299281        3.85535294497557       -0.56902077623811
H            7.86064340444820       -3.20357688837512        2.75556934783839
H            6.98824825833149       -1.81707750914911        2.07902366070528
H           13.99142062074983        2.36341710620004        1.26939446528631
H           14.50226651608978        3.56857857296393        0.08313317539694
H            5.69266772194314       -3.85448471164800        3.43315170796083
H            5.10179762001829       -2.18813780015090        3.45509964043700
