470
 energy: -764.106146521366 gnorm: 0.000576310163 xtb: 6.5.1 (579679a)
Au           2.26561026111124       11.39914576223870       54.18022051926381
Au           2.92258044372470       11.73393436929997       57.02584840020060
Au           0.50760877596385       12.97428278120267       58.52755195413860
Au           1.51794128714531        8.91010799364913       55.80499398472669
Au           4.16203859423158        8.96476719657322       57.15303551522068
Au           3.42363032020864       11.38008791129537       59.92617549917325
Au           5.10813925775329       11.88622142942175       54.03703982008414
S            3.78696946342595        8.05296638796563       54.96612255121936
S            4.94648496985305        9.69405062407114       59.29820630029219
S            2.00960494338778       13.14458746993524       60.57384068319054
S            5.06186862813377       12.85280015657789       56.19896151712265
C            3.05956794863958       14.53476226586164       60.36922929927302
C            4.01623211664728       14.81636955169327       61.35223614590928
C            4.82800957243676       15.93637811297874       61.20733297034707
H            5.57175710756490       16.14818245682816       61.96871440488643
C            4.70168589041956       16.79187966242731       60.11689779396504
C            3.74015685437899       16.50666495084182       59.15239326070994
H            3.61686668718521       17.15995058824900       58.29713381873351
C            2.93799344585331       15.38664188150582       59.27802804337871
H            2.20035231396600       15.16992093994087       58.51542200226447
C            5.59202377594409       17.99411428305205       59.96779652443121
H            6.04026708973298       18.27059607912061       60.92199136371086
H            5.02788069968362       18.84416214330172       59.58229334179652
H            6.39670086972884       17.77549724683915       59.26190506296197
C            4.17166683741032       13.92011128850216       62.54715884755473
H            3.19716936627126       13.70466711807855       62.98762485829868
H            4.81253350945350       14.37820914170367       63.29983176341077
H            4.61555366562108       12.96825489961306       62.24578315832611
C            4.74563139432804        8.36217631457082       60.41541923380339
C            5.41907766952622        7.15564896699876       60.19086415848763
C            5.29677896717453        6.13199747313288       61.12399339807575
H            5.81254969109941        5.19436835660598       60.94312316775559
C            4.53182947726081        6.27859267182663       62.27657298962209
C            3.88232756596616        7.48983461660385       62.49611476465331
H            3.28277983962025        7.63382064877480       63.38785982579616
C            3.98925222699534        8.51437018577693       61.57282754822971
H            3.47100982334391        9.44949312330851       61.75000089901428
C            4.41987625646709        5.15790369673756       63.27214744084749
H            4.59533238602801        4.19416910066404       62.79400544469739
H            3.43121980978350        5.14893583308788       63.73180698370462
H            5.16094896273180        5.28611775319128       64.06437931653987
C            6.25529440367645        6.94085913201259       58.96301107661650
H            5.60880409913079        6.82213167228813       58.08987948845475
H            6.86591332988566        6.04338563720170       59.05717777384231
H            6.90468090243149        7.79779837771639       58.78303908764651
C            3.70030382633334        6.33574659579272       55.31794596990404
C            4.87225940787524        5.57583816127869       55.24191964599248
C            4.80763443053551        4.21199056347773       55.50114164837848
H            5.71624762687507        3.62097895671289       55.44462069417286
C            3.60613608170187        3.58815989327963       55.82828419061841
C            2.44770714193774        4.35674646513712       55.89549756872975
H            1.49746699949774        3.89923877833399       56.14788752493118
C            2.50011551351612        5.71647402704131       55.64158833248930
H            1.58930990620122        6.30121498078894       55.69228654220579
C            3.55972180974343        2.10568859965885       56.07333082214493
H            3.48444756716115        1.57564707667653       55.12080753393368
H            2.69393014980301        1.83909848307956       56.67969335729186
H            4.46453563755506        1.76637088709372       56.57834395490498
C            6.17678503951803        6.22784812777695       54.88035276139614
H            6.06288325900631        6.81386229675824       53.96694359433803
H            6.95939760920920        5.48443478111472       54.73255692033496
H            6.48842694030696        6.91233032142512       55.67211782165038
C            6.32844703460488       12.00406797944614       57.06491283877786
C            6.77756186689535       12.55285343230432       58.27151339524914
C            7.75564854018636       11.88774279139585       58.99936284551610
H            8.09291106606227       12.31108665974382       59.94011713395984
C            8.30720027126513       10.68940831748576       58.55133232948390
C            7.87258529845080       10.16647615162353       57.33797405790881
H            8.29459485556031        9.24297532328126       56.95722523094214
C            6.89226295355605       10.81895726867106       56.60672645456366
H            6.56668951894465       10.40242543077873       55.66148231743766
C            9.33900814283187        9.97447186939921       59.37962258218493
H           10.11799995460369       10.66543738733105       59.70492628929944
H            9.80056839332801        9.16516429814134       58.81416347429706
H            8.87228891714705        9.54970256779923       60.27108443607659
C            6.19174268224754       13.84077109390763       58.76951493847668
H            6.30916587713105       14.62632377121197       58.02060103146080
H            6.66151980535915       14.15988947388755       59.69917349252574
H            5.12080665802057       13.71692603258288       58.94171073937341
Au           0.00008493438964       11.23023249144562       52.45259904743705
Au          -1.27898022128333       13.10852312428807       54.18014858235544
Au          -1.89720256030915       13.50898016262789       57.02634033045252
Au          -1.76488060461114       10.79796295409109       58.52705525402133
Au           1.25013817269712       13.70456200970816       55.80586213561536
Au          -0.11946631069853       15.96834190169926       57.15314023046943
Au          -1.84313760421248       14.12083856266225       59.92686156927476
Au          -3.12214225400158       15.32571401771566       54.03637524146516
S            0.85785270597924       16.09861889913439       54.96648241139025
S           -1.14315424272346       16.28240361481419       59.29853268601293
S           -2.66259570627371       12.01333315737597       60.57425288068386
S           -3.93643797368806       14.80314303164930       56.19871391134162
C           -4.39147573056802       12.22788639463073       60.36975875823232
C           -5.11376069988800       12.91556899634611       61.35272584555265
C           -6.48960908050248       13.05856303035413       61.20770174927529
H           -7.04498951181050       13.59674813944092       61.96904249391514
C           -7.16724929485510       12.52142856225575       60.11720516279989
C           -6.43941585866980       11.83128070070632       59.15278331362308
H           -6.94345057136350       11.39781937892417       58.29750131802908
C           -5.06838933126139       11.69660938528760       59.27855057721272
H           -4.51179674326695       11.16609371731193       58.51605087659744
C           -8.65354111097034       12.69149786756878       59.96783133887092
H           -9.11741860559367       12.94058029283982       60.92209848879369
H           -9.10751238151286       11.77828002765608       59.58132328640455
H           -8.86630052414218       13.49833871392668       59.26261627002297
C           -4.41546185359349       13.49836909909548       62.54772592078940
H           -3.74170422789807       12.76218835263978       62.98835801900423
H           -5.13274609792362       13.82435313509247       63.30027813330530
H           -3.81303827964837       14.35870802013094       62.24639181985627
C            0.11093531831296       16.77446872315371       60.41543545302416
C            0.81891461832154       17.96103331913919       60.19079142438793
C            1.76662752731841       18.36703833836439       61.12381918562687
H            2.32055311676815       19.28264015321411       60.94294307771886
C            2.02243130431975       17.63123335662401       62.27631125082282
C            1.29851308683709       16.46294367736896       62.49584026199273
H            1.47386983075017       15.87163768343440       63.38746900676604
C            0.35766694343695       16.04323950468808       61.57270189813994
H           -0.19288552559134       15.12676558930297       61.74987927628160
C            3.04888637806553       18.09479916539376       63.27185848656448
H            3.79540604685247       18.72910683575103       62.79379605384389
H            3.55143354493670       17.24318168921958       63.73120981074696
H            2.56712740128171       18.67201836927675       64.06431475461720
C            0.58658273285365       18.79258160221126       58.96295841117177
H            1.01262013833967       18.29212370700764       58.08977915234426
H            1.05841568413009       19.77017836068559       59.05709361493315
H           -0.48027075508244       18.92639887687629       58.78308773339771
C            2.38828659127866       16.88242652231269       55.31799907887418
C            2.46012345095306       18.27731970212293       55.24171958236161
C            3.67339174721932       18.90357923891963       55.50096051405652
H            3.73068863927008       19.98596781570019       55.44424688114076
C            4.81452368511894       18.17527080413153       55.82832910586996
C            4.72843730244392       16.78773678099376       55.89569517314358
H            5.59990843406272       16.19379742486841       56.14817523619555
C            3.52481855516937       16.15294505791863       55.64182421472120
H            3.47404453526705       15.07178959399990       55.69273517454283
C            6.12134486633085       18.87672388699100       56.07348813928476
H            6.61816988161219       19.07650158889063       55.12103765895422
H            6.78515906898890       18.26056393443337       56.68014961682879
H            5.96237984032556       19.83003915865967       56.57825222447612
C            1.24310123763190       19.08074680173971       54.87979898112420
H            0.79282453922162       18.68887130489190       53.96634871996685
H            1.49545205757973       20.13023675305712       54.73188745176473
H            0.49434947808318       19.00838312183223       55.67141840270426
C           -3.83447721365943       16.32415457850323       57.06503950837261
C           -4.53423487066397       16.43881037525261       58.27166730745181
C           -4.44720448440746       17.61850486694313       58.99936951530078
H           -4.98232599196093       17.69898961702998       59.94019104368462
C           -3.68515959610117       18.69525028508411       58.55120714927857
C           -3.01507374997843       18.58020278193710       57.33781207228061
H           -2.42625181555225       19.40732880170394       56.95694770321245
C           -3.09008585037149       17.40492754581959       56.60670235501885
H           -2.56669601554435       17.33111068330876       55.66139694767132
C           -3.58173059884106       19.94633721030334       59.37938793756086
H           -4.56957994840181       20.27566021272083       59.70462908176934
H           -3.11149088140100       20.75058276189522       58.81385760131930
H           -2.98056066355993       19.75451048103879       60.27087778998644
C           -5.35659878299929       15.28759424048119       58.77002175163168
H           -6.09589011903418       14.99646816542258       58.02139165048828
H           -5.86755201331656       15.53502527737411       59.69980912387375
H           -4.71385872105543       14.42205022188022       58.94215233037246
Au          -0.98686378756156        9.18333037474466       54.17886194959478
Au          -1.02576613706297        8.44769626887662       57.02662000519322
Au           1.25675830953589        9.91797023214838       58.52673783584537
Au          -2.76870584444662       11.07549083497722       55.80494923425231
Au          -4.04328596585796        8.75848656536545       57.15339702300696
Au          -1.58200560871339        8.19078230685851       59.92652516841491
Au          -1.98539712657755        6.47883303002328       54.03616479552184
S           -4.64539679431604        9.53932881721352       54.96655577368869
S           -3.80360263463239        7.71461604913089       59.29834187367585
S            0.65292750866164        8.53284952630928       60.57395190599495
S           -1.12593579809276        6.03522586062052       56.19864160713758
C            1.33196157931522        6.92846989224362       60.36970164508526
C            1.09752235789966        5.95913867040587       61.35265865738825
C            1.66149932958307        4.69608603455788       61.20757903093646
H            1.47315599785539        3.94606219128119       61.96896933326772
C            2.46534589986195        4.37774211783530       60.11699457110265
C            2.69903365089153        5.35309218148956       59.15250244672309
H            3.32630527939732        5.13325328821801       58.29714019582355
C            2.13028043638548        6.60780843074097       59.27834410084383
H            2.31128765228392        7.35505205437962       58.51577568780860
C            3.06121107115971        3.00555737791208       59.96754288982729
H            3.07694363935778        2.47900797312793       60.92166222893034
H            4.07926420975882        3.06911200216690       59.58156595618232
H            2.46918873607746        2.41812308481443       59.26184016161186
C            0.24375575654145        6.27258931503717       62.54771204194855
H            0.54446290612799        7.22420813806944       62.98824711412232
H            0.32015056597393        5.48847314973061       63.30031670102279
H           -0.80257142148863        6.36409249415026       62.24650925696928
C           -4.85653767980873        8.55447558018664       60.41565447877473
C           -6.23816904158300        8.57438443831727       60.19123765708022
C           -7.06349295081614        9.19216542206224       61.12437470732012
H           -8.13341288682690        9.21416471133959       60.94362351537792
C           -6.55399903490978        9.78154601808957       62.27681732727967
C           -5.18025107167651        9.73859493861051       62.49620409208006
H           -4.75572924036156       10.18601355769288       63.38783018285113
C           -4.34647854878055        9.13366147613597       61.57292031608089
H           -3.27749816186712        9.11506859546044       61.74997746024327
C           -7.46851523374813       10.43887709171131       63.27242136737159
H           -8.39099650528185       10.76856031749169       62.79437834245628
H           -6.98201551326296       11.29972486208628       63.73184342336133
H           -7.72776526384150        9.73308720032044       64.06482854739708
C           -6.84234432445277        7.95739859891172       58.96350950469461
H           -6.62205762348393        8.57656333073526       58.09028915960346
H           -7.92487318439090        7.87723125625252       59.05778608153653
H           -6.42483011681597        6.96656269535648       58.78360985627495
C           -6.08901042190841       10.47333228948606       55.31833891947359
C           -7.33324780418065        9.83864192046147       55.24231755709283
C           -8.48188597274770       10.57680419694944       55.50153595886533
H           -9.44814668858209       10.08567093491615       55.44498011489820
C           -8.42107982737147       11.92922664634715       55.82870372609558
C           -7.17610329412799       12.54786663409096       55.89593503324105
H           -7.09693259850887       13.59952683541692       56.14835331464074
C           -6.02491562210575       11.82234339521516       55.64200863913597
H           -5.06299957674793       12.31852972468367       55.69272604048785
C           -9.68159937137453       12.71086814960197       56.07376493773420
H          -10.10317040025633       13.04081159507874       55.12122871852438
H           -9.47939499375244       13.59412239882534       56.67982758488692
H          -10.42780803371330       12.09713765404294       56.57911009743032
C           -7.42124003884457        8.38291196228278       54.88074064367652
H           -6.85693419756770        8.18842139681844       53.96726781399826
H           -8.45645379716645        8.07711668438214       54.73304932513104
H           -6.98434991611493        7.77066439663592       55.67245244233337
C           -2.49423083892908        5.36285182378295       57.06471042472636
C           -2.24358958174187        4.69951740675235       58.27131940617305
C           -3.30869597161120        4.18501141591623       58.99906969914547
H           -3.11076855272188        3.68121922627853       59.93981346238283
C           -4.62223241035399        4.30658159936584       58.55097179272408
C           -4.85772855599957        4.94457953735171       57.33767765616128
H           -5.86848602731536        5.04096890714023       56.95690273999155
C           -3.80244748984618        5.46729182739141       56.60650964208315
H           -4.00029117432783        5.95761860528389       55.66129680328619
C           -5.75733854987847        3.77032848934310       59.37909019751239
H           -5.54879211145157        2.74987202163496       59.70353928179745
H           -6.68910794898028        3.77608025109433       58.81381783391326
H           -5.89139448176581        4.38625197131967       60.27106389589459
C           -0.83536204328956        4.56292031855295       58.76949061048216
H           -0.21361130689375        4.06858054456248       58.02062316895073
H           -0.79399009182045        3.99642065445080       59.69909245576279
H           -0.40722355262844        5.55230106106762       58.94187941440311
Au          -1.12495943351385       14.13036123151423       51.26238319537095
Au           1.12834621606706       12.70475147181277       50.30439150693137
Au          -2.96947698004313       10.87830526315247       52.97213560161196
Au          -3.96411769457776       13.66219888019985       50.41970705166245
Au          -1.51667923475533       13.64849951824120       48.15457834109068
S           -4.42959424367510       12.97884432537592       52.62726610229998
S           -3.69510367960491       14.62725791695313       48.29037047823412
S            0.82890406227285       13.37328694438892       47.81507799869020
S           -1.96481538519328       16.28397998597792       52.20561384723858
C            1.30633901768749       15.05441519850881       47.65080035943532
C            1.06882543872180       15.72120808250214       46.44341040228041
C            1.44157638241522       17.05496910204553       46.32207070757612
H            1.24784002427520       17.57163589779335       45.38744817970541
C            2.05828998100009       17.73854606437044       47.36573215683634
C            2.29698927291120       17.06228167455070       48.55784941299661
H            2.77617205698524       17.57034218719135       49.38673964926624
C            1.91285494342486       15.73967978893720       48.69678132992895
H            2.07685624942824       15.23224449709061       49.63930193542833
C            2.48227025849355       19.17231109199103       47.20474946213232
H            1.88694108877217       19.67219744858327       46.44070097480922
H            3.53153921921249       19.21710687607285       46.90311710298630
H            2.37870258071925       19.71382802995948       48.14560211409106
C            0.40549022601276       15.01561927835281       45.29561537963539
H            0.84656556313472       14.02875781407123       45.15099669058457
H            0.50096310487908       15.59031222828912       44.37481993067573
H           -0.65697648736168       14.87425312650732       45.50748126320731
C           -4.68980551619326       13.78994028094399       47.12030905905858
C           -6.06464844794155       13.61442935359688       47.31548176068316
C           -6.81691877959162       13.02971722977704       46.30189465365937
H           -7.88144716423286       12.88547848835299       46.45753807003121
C           -6.24467462846152       12.62915561882496       45.09915747619846
C           -4.88057389588573       12.83181627993499       44.90894089982791
H           -4.41097111599359       12.54062776283623       43.97608988472498
C           -4.11722152819596       13.40245738398528       45.91151981904616
H           -3.05573395320910       13.55673786115469       45.75832461695353
C           -7.08449853793340       12.00682056415486       44.01831769256157
H           -7.98030287603045       11.54806321975257       44.43711256945785
H           -6.51766944106074       11.24682869163029       43.47967164221332
H           -7.39521201409742       12.76942742438466       43.30048724385333
C           -6.74797848104418       14.02865992753029       48.58719251006231
H           -6.47662079653990       13.34694265641052       49.39670738118565
H           -7.83145134467466       14.00221114758954       48.47362586456975
H           -6.44703294008574       15.03464143879315       48.87993670546830
C           -6.04384704006356       12.31354288795979       52.40770995272192
C           -7.17364330131900       13.12121835339728       52.56250183311263
C           -8.43354292248423       12.56013431899229       52.37964663956095
H           -9.31024179679660       13.18865804321675       52.50011321161504
C           -8.59511573097137       11.21846452347341       52.05068267326111
C           -7.46096126284235       10.42396376199434       51.90264343613484
H           -7.55878598282549        9.37276022755981       51.65575759027853
C           -6.20247851429605       10.97228100061094       52.07849115044313
H           -5.32527221846285       10.34705657234667       51.96419410452479
C           -9.96672780231349       10.62461173925522       51.88807619885475
H          -10.25701102674542       10.10782188815846       52.80599687611932
H           -9.97913636801443        9.89875592460671       51.07429621455672
H          -10.70653501003933       11.39846259247873       51.68374031633285
C           -7.04251157210857       14.57437183753195       52.91642216896808
H           -6.32321473387580       14.70636442275666       53.72556839864697
H           -8.00157424912821       14.99119522059402       53.22232371472833
H           -6.68090419764484       15.13492679812805       52.05224425178132
C           -3.08447596895181       16.89681046981399       51.01709301468948
C           -2.57445105568662       17.40794199298091       49.81584316111108
C           -3.45994807868984       17.86959022581687       48.85157661049811
H           -3.06731837222224       18.24973900718693       47.91395464487383
C           -4.83893108992012       17.84472197802798       49.05383430020908
C           -5.33022894296005       17.36907557183116       50.26472001824098
H           -6.39760463666942       17.35942184621930       50.45603947297203
C           -4.45780067907585       16.90049087618975       51.23521226172847
H           -4.84131949438341       16.54291939494781       52.18315811130676
C           -5.76900336416440       18.30791525024358       47.96662109796811
H           -5.44268036780385       19.26730474450703       47.56277374352835
H           -6.78714151809065       18.41155228184788       48.34135820585966
H           -5.77453457339700       17.58307817513501       47.14949419052732
C           -1.09456572320208       17.43506540083738       49.56612786342655
H           -0.57254522923357       17.89280739170823       50.40788801126426
H           -0.85732707999635       17.98341440439363       48.65494467979208
H           -0.71264560896466       16.41621581827978       49.46374687560838
Au           0.00032521851001       11.23062773010141       56.21089338824778
Au          -1.94777130184327        8.80571460169352       51.26174881084729
Au          -1.83964905177272       11.47096603552562       50.30503011442082
Au           1.78881894259934        8.83437910330943       52.97109676977594
Au          -0.12461387701793        6.58229376697711       50.42014768200963
Au          -1.33490602179447        8.70762036313852       48.15340379150805
S            0.70058416610121        6.51992196324654       52.62707367605629
S           -1.09403450644980        6.33160928407549       48.29027295191749
S           -2.27029302801206       10.87626242426126       47.81498165663037
S           -3.39364281788931        7.00179215437455       52.20490611650172
C           -3.96503942692992       10.44969656482722       47.65080333736081
C           -4.42375646657559        9.91061515623972       46.44343949440174
C           -5.76516657819280        9.56643801523885       46.32218388992563
H           -6.11577924471331        9.14038033278406       45.38755440516680
C           -6.66543310917130        9.75858903071184       47.36595057724245
C           -6.19906241998339       10.30336619916641       48.55807751971538
H           -6.87859349366664       10.46421767000720       49.38702913105885
C           -4.86161913213504       10.63211961677036       48.69691867682869
H           -4.50410916499931       11.02776830011700       49.63946149562231
C           -8.11908153100398        9.40879891702949       47.20506010823657
H           -8.25432588824742        8.64337953006651       46.44091684501239
H           -8.68260964513786       10.29509057287763       46.90360529912451
H           -8.53613469962998        9.04817777837528       48.14590477871395
C           -3.48100709116269        9.68910260408063       45.29563480570015
H           -2.84695425257902       10.56457637383032       45.15113119531271
H           -4.02642953690026        9.48453693797194       44.37481326237293
H           -2.82728331094305        8.83968594569380       45.50742118848322
C            0.12851905299507        5.88913719948929       47.12013030594326
C            0.96771801169100        4.78603151862325       47.31512663624348
C            1.85013793100088        4.42680946614821       46.30148711827487
H            2.50721348395313        3.57692491119118       46.45707776382761
C            1.91102166923994        5.12275404938189       45.09881258156722
C            1.05356997258048        6.20288183621710       44.90867885410873
H            1.07106479441822        6.75522885222318       43.97586672851808
C            0.17778413200205        6.57875765470431       45.91132594122053
H           -0.48646565149674        7.42098708420952       45.75819165778342
C            2.86991177900308        4.70662898997282       44.01796645263143
H            3.71503347654248        4.16004843335502       44.43669950463305
H            3.24480533758660        5.57753874887448       43.47945474097921
H            2.36479465018871        4.05640643835111       43.30001321204713
C            0.95051494476070        3.98698199856215       48.58673994787878
H            1.40536765419488        4.56268960897181       49.39628362205737
H            1.51495954980717        3.06178152697446       48.47309726762450
H           -0.07120469221649        3.74481965631492       48.87950974492446
C            2.08384695433567        5.45450889422693       52.40753425450070
C            1.94936108417097        4.07222017863002       52.56231401073694
C            3.06526450887047        3.26171365925386       52.37938658012881
H            2.95935476852440        2.18819685536676       52.49981564930710
C            4.30793503324402        3.79268188370516       52.05039152447698
C            4.42883745848260        5.17214477469572       51.90236953719205
H            5.38808291730357        5.61308376696201       51.65544124185757
C            3.32470156956344        5.98779701704449       52.07826618742056
H            3.42749511311117        7.06009678692984       51.96397063250076
C            5.50808426139857        2.90183171723384       51.88775302395334
H            6.10095268740102        2.90910398035809       52.80555960043792
H            6.14271464146499        3.25388238296660       51.07377207147027
H            5.20786953398853        1.87414009003225       51.68371165333834
C            0.62540591897340        3.45906359333951       52.91628169549798
H            0.15144030583628        4.01588413394599       53.72549968952513
H            0.74408852279769        2.42006790626462       53.22210195038899
H           -0.04090405076965        3.49192670751728       52.05214391411561
C           -3.36461022076514        5.72559431882300       51.01654898765218
C           -4.06242574406738        5.91168541608900       49.81538967452757
C           -4.01953810224674        4.91400937929981       48.85112671159453
H           -4.54519613468874        5.06393023944657       47.91357196790746
C           -3.30846960598130        3.73222364903232       49.05334565665677
C           -2.65082620410297        3.54457021076003       50.26419215761469
H           -2.10883185335337        2.62498931696404       50.45550687036444
C           -2.68111744938986        4.53443471350470       51.23466171933997
H           -2.17964408461265        4.38107343716854       52.18258104015724
C           -3.24461241706737        2.69517946414372       47.96611658468132
H           -4.23865504180921        2.49802112909653       47.56236464517245
H           -2.82518246354326        1.76165524735492       48.34079396641931
H           -2.61422756036921        3.05288149604110       47.14893812819627
C           -4.82601373945066        7.17968512970404       49.56588365479008
H           -5.48343330902837        7.40267928532371       50.40770931050778
H           -5.41951022824377        7.11107824854961       48.65469663152210
H           -4.13476039676923        8.01997635599158       49.46365184465365
Au           3.07454359996249       10.75482879462173       51.26223988895758
Au           0.71211007273257        9.51632475841275       50.30478858175234
Au           1.17993831860917       13.97857299967669       52.97182041822155
Au           4.08809723035840       13.44740289540374       50.42000064912936
Au           2.85242063587079       11.33553565469467       48.15391430566380
S            3.72922687903273       14.19230678565637       52.62734582722896
S            4.78944747434573       12.73224874224874       48.29084543799323
S            1.44162087663501        9.44106423901973       47.81511648225278
S            5.35932478650165       10.40516199672566       52.20553870443954
C            2.65865297650687        8.18687338686169       47.65087516531272
C            3.35479586864560        8.05922394954208       46.44344538525579
C            4.32351397862516        7.06957945027963       46.32201134750348
H            4.86776830148700        6.97907008630946       45.38735142956867
C            4.60721579028005        6.19366448493954       47.36562850216451
C            3.90228005272807        6.32503369686608       48.55779528864851
H            4.10271220170844        5.65595814893490       49.38663004511416
C            2.94894954867241        7.31900570304649       48.69684146929674
H            2.42759214448125        7.43066584422577       49.63941961334633
C            5.63687542462944        5.10960119223731       47.20450021442816
H            6.36721258747933        5.37513492717914       46.44018775963060
H            5.15096524397050        4.17845375874740       46.90315496851919
H            6.15792332321588        4.92868692777741       48.14521712282282
C            3.07520499249913        8.98651417641304       45.29572989540611
H            1.99998625286495        9.09790298909252       45.15131563941301
H            3.52500612417955        8.61651479945218       44.37484630752201
H            3.48398856721264        9.97733889189443       45.50757089756172
C            4.56154447952165       14.01216100876864       47.12058143932270
C            5.09719811817984       15.29051369628460       47.31550423315905
C            4.96699390697235       16.23426585218394       46.30182016041404
H            5.37443745574651       17.22827860665522       46.45734445971008
C            4.33385586452359       15.93892104630746       45.09916298392964
C            3.82723547189725       14.65624300927637       44.90910006766474
H            3.34018971722825       14.39511626087340       43.97629174704990
C            3.93965804338625       13.70993058796091       45.91180905216999
H            3.54243607546068       12.71353203849529       45.75873964218596
C            4.21472743062403       16.97734147204896       44.01826328612318
H            4.26546651895462       17.98255040570801       44.43694896445558
H            3.27305140192783       16.86647910772871       43.47976643081315
H            5.03039649937909       16.86501303179281       43.30030946654360
C            5.79788134409526       15.67520610076726       48.58705180892726
H            5.07200508748781       15.78109858088429       49.39672781432655
H            6.31671203957771       16.62673140742498       48.47334867583305
H            6.51866412066245       14.91157897365115       48.87965593162680
C            3.96014665319464       15.92296184065979       52.40798104440009
C            5.22452304256071       16.49748670352061       52.56291641188957
C            5.36866877524484       17.86911226989861       52.38000213033894
H            6.35133370562322       18.31405313436232       52.50063734278955
C            4.28764039156829       18.67989384745645       52.05075055211616
C            3.03250175449319       18.09499105274084       51.90248593257999
H            2.17114454250896       18.70534265138750       51.65533105350642
C            2.87798641798924       16.73097849835635       52.07845954923643
H            1.89793536332825       16.28393645295903       51.96395987926677
C            4.45928242846448       20.16464621450283       51.88803304336466
H            4.15630511349261       20.67458961308307       52.80567927550634
H            3.83739571749283       20.53820434409407       51.07380269689209
H            5.49949334874989       20.41835860154352       51.68430729771384
C            6.41732092405147       15.65725010399675       52.91695690272325
H            6.17185338759465       14.96831402127776       53.72605476048727
H            7.25786238195112       16.27932463814052       53.22294491358850
H            6.72199013955701       15.06381425469007       52.05278206503367
C            6.44967968962506       11.06862411336881       51.01699766597979
C            6.63724372550910       10.37125802877394       49.81581808375222
C            7.47969622908579       10.90721730297685       48.85145023039159
H            7.61252312138759       10.37705034461828       47.91385912133070
C            8.14770895932685       12.11387682846151       49.05361104232629
C            7.98153155202743       12.77726869975635       50.26445637491194
H            8.50692054423881       13.70645423764150       50.45569269950256
C            7.13954543651120       12.25611435125549       51.23503426106650
H            7.02177732504701       12.76707189735843       52.18298149864226
C            9.01391392028496       12.68754184697796       47.96632387829055
H            9.68149619595842       11.92509348136778       47.56257355294966
H            9.61285251133750       13.51741984173223       48.34095167216503
H            8.38898671729578       13.05471990148931       47.14915947219453
C            5.92079024161725        9.07601773841353       49.56645182142505
H            6.05631684966145        8.39526160204867       50.40835530148864
H            6.27695439347183        8.59620333628217       48.65533306907143
H            4.84745975102115        9.25463900831149       49.46420349013673
