470
 energy: -763.660301131260 gnorm: 0.000782810865 xtb: 6.5.1 (579679a)
Au          20.14122321992974       19.70882102220423       20.55214268955139
Au          20.46603529322339       21.79356945313133       17.65316089076870
Au          20.61485542896910       17.45266716883403       18.60810143557937
Au          22.40423431088244       19.56611746874056       18.47332840668496
Au          20.70286263644168       19.10892480790258       16.34352718196851
Au          20.88466464573407       14.41939088912197       20.81845027772337
Au          22.57519338382633       16.95317546377055       20.84865445104285
Au          23.31068234161833       15.09416833373796       18.99418870684792
Au          22.73737342704042       17.13942347500312       16.72721587267845
Au          24.73757639705848       19.11016448141092       16.23282683227361
Au          22.73597818632875       20.79549391746747       14.88963960476901
Au          20.77641247059027       20.23497418680736       12.70578675778070
Au          23.48257340189785       22.38280199708720       12.37958523592983
Au          26.50363482425808       23.02306183175172       14.95118175530594
Au          25.14373693570551       20.23748720768483       13.59473584574378
Au          22.99906883718399       18.25422992248210       13.89470662419925
Au          22.54934518012004       14.75437761691040       15.20705792290597
Au          26.38019976576837       20.10892717386049       18.99566656940872
Au          24.67106822543952       17.66472185946157       18.95005711607362
Au          25.14846383266319       15.88781484657090       21.16304864734004
Au          25.80462422589683       17.96535607890870       23.26672903759918
Au          23.15431181017752       15.16172721360729       23.25937465092496
Au          27.59602232750601       17.65052091760083       20.20572363372677
Au          26.97354047276088       15.20947827439424       18.83043197321478
Au          25.16429876559407       15.62719525084299       16.57990376005158
Au          27.05778518330386       18.13364786301719       14.43129686791842
Au          27.26699363760057       20.46664579960887       16.17529879656007
Au          27.04050105054982       17.72220599377568       17.31719968857896
Au          28.71592525950729       15.03186176861680       21.27806850995308
Au          25.74138065643969       12.62427278140214       16.67273254535894
Au          29.50904592178470       16.27650600669213       18.02459981008339
Au          27.97516408978634       15.64735195904679       15.52558490287052
Au          28.96644089398600       19.62145486896188       18.46055058656109
Au          25.29365693565264       14.53640029808522       13.83698230592795
Au          29.55154472329297       18.17038618393456       15.80973909243538
Au          28.84595104908977       19.81193845826745       12.87255327085446
Au          30.53696337484169       14.25245191554329       15.87046654923881
Au          32.04059116049574       17.37729050190824       17.14774929117654
C           17.83108568442203       21.97672820370448       19.80203985426950
H           17.03301587640265       21.43807988000910       20.31515565659562
H           18.43866705497362       22.48960058800202       20.54714077257312
C           17.23646308879233       22.97810406239434       18.81672467124542
H           16.75106858499678       22.43225112074576       18.00310432082857
H           18.03931225359494       23.58234109720479       18.38479855803810
C           16.23177710660806       23.85043758916121       19.52583534428904
C           14.99331632407105       23.32553554143145       19.88971623017992
H           14.74670127796282       22.29998596811444       19.63544700889037
C           14.07111005784716       24.10932673631484       20.56628504947057
H           13.10847486202004       23.69259434644229       20.84150152561674
C           14.37916873850491       25.42404263677014       20.88991136409732
H           13.65795371704990       26.03740514617176       21.41807716546999
C           15.61313826090520       25.95038582498609       20.53494835655012
H           15.85896708769639       26.97619818328206       20.78638989933781
C           16.53740837602521       25.16608792237688       19.85862412809686
H           17.50075995562104       25.58251551574766       19.58357241081743
C           20.39963672570340       17.91392589143335       23.33274902061246
H           19.76790064972873       17.19047302557912       22.81645784028586
H           21.04093984019661       17.37399682224623       24.03100268120447
C           19.54230549713984       18.92069416194262       24.09499054545544
H           18.88026496854558       19.43573419522206       23.39320312021263
H           20.19178248504286       19.66671785680105       24.56041197760629
C           18.74436571810483       18.18078185579555       25.13706036823261
C           17.58230236817491       17.50252222780369       24.77714924706282
H           17.22069051971324       17.55675721425415       23.75510683479040
C           16.88278229866274       16.76385416532933       25.71992625070609
H           15.97734228257125       16.24135154867101       25.43161015338813
C           17.34210208635342       16.69014723714150       27.02821548362226
H           16.79691249908680       16.10931030197131       27.76348441984834
C           18.49980706366869       17.36348697307581       27.39259904411892
H           18.86239310346497       17.31037058640493       28.41322486150383
C           19.19835969423189       18.10521521348492       26.45066334566902
H           20.09924233465033       18.63605584891241       26.74067476803019
C           23.40512248949416       23.19381993114301       17.02711123136443
H           23.92007650782425       22.27342674342040       17.29777474762393
H           24.02804780011287       23.74982447362763       16.32630430111280
C           23.13755517262428       24.02411884059342       18.26947870206476
H           22.67894703223464       24.97625780554596       17.98335210812370
H           22.41341720168100       23.49368753062894       18.89873178631155
C           24.37963792905192       24.28323099726294       19.09247774622378
C           25.64375807491166       23.84801502261578       18.70900537574464
H           25.79269565967473       23.32968684949078       17.76998017546937
C           26.74577685960389       24.06609906022946       19.52232557178796
H           27.71790303598198       23.70960422656731       19.20153939021307
C           26.60268419462548       24.73344405745427       20.72925491408817
H           27.46297434445147       24.90213504060475       21.36630173346470
C           25.34890317908702       25.19022994617652       21.11376578334325
H           25.22756370831531       25.72013400849826       22.05193828968276
C           24.24593432620768       24.96340539649736       20.30289884673868
H           23.26798208289259       25.31633773936726       20.61283903075802
C           18.02872854768025       16.16126259565346       20.31080607315162
H           17.34753041109522       15.34903153344426       20.56694852386812
H           18.41015648073809       16.59858994995768       21.23384870923397
C           17.30140337347795       17.22073677284210       19.48747833798434
H           18.02738802516368       17.97205081138792       19.16224849929551
H           16.88271952708980       16.75920122517742       18.59052788545953
C           16.21904896528352       17.89556633105891       20.28777818701180
C           16.55354343658176       18.83695024888666       21.25819278275918
H           17.59795219847508       19.06964427516483       21.43938036453334
C           15.56770843810954       19.48920813273025       21.98292134185076
H           15.84388555000048       20.22546925556948       22.72940937446034
C           14.23025129732010       19.19900700434470       21.74817713530810
H           13.45663236621845       19.71146557265692       22.30838455267890
C           13.88809842752353       18.24942798954212       20.79556450397486
H           12.84533135780488       18.01342270588835       20.61496509394638
C           14.87715993878312       17.59801421420764       20.07063438067455
H           14.60261908967945       16.85773080535182       19.32677487296369
C           17.99032783469120       20.39614332906637       14.75802959496654
H           18.37187376379172       21.36939757067015       15.06802791086044
H           17.35831782468192       20.52372745946385       13.87886085992723
C           17.22565250843797       19.71439668743695       15.88408796157510
H           16.99017982458310       18.69092170663347       15.57668977934371
H           17.88541880134732       19.63581059629196       16.75724078550018
C           15.95255206192110       20.39692204302873       16.32020362954053
C           15.58599006179159       21.67383591972571       15.90464410478838
H           16.21048285560545       22.23038765584601       15.21542602010378
C           14.40764391267005       22.25087449523073       16.36366738280742
H           14.13341898258841       23.24513265895010       16.02894372312973
C           13.58888118163268       21.56553409214822       17.24883622299515
H           12.67162096462515       22.01912816428773       17.60628703008901
C           13.95122107586280       20.29295814938585       17.67274345570450
H           13.32050875628209       19.74928496367205       18.36763821020601
C           15.12080756994179       19.71445137789050       17.20799656973714
H           15.39694937389033       18.71865393404787       17.53802478127497
C           23.94382680742185       20.74552056964430       21.29043477843711
H           22.87992678706463       20.79542013177050       21.51386840407135
H           24.31578234217805       19.76988144848521       21.60884505460951
C           24.69007872276277       21.85779181298183       22.01079571730511
H           25.68132890296657       21.97768111353745       21.56308391165938
H           24.15675937802898       22.80180359152923       21.85573135197239
C           24.83909941768302       21.60396125909759       23.49099440141076
C           25.92365783268396       22.16203250720626       24.16711836176782
H           26.63486268150338       22.77578431126653       23.62383162016354
C           26.09355099568210       21.95189102507425       25.52737073972532
H           26.94659978294684       22.38627539797270       26.03675246811167
C           25.17145860372465       21.19267143033370       26.23559088957842
H           25.30039874100292       21.03072871665194       27.29966825137905
C           24.07924354525667       20.65071705611630       25.57449817400243
H           23.34118863897334       20.07552739742302       26.12312718232449
C           23.91602550235637       20.84681782933406       24.20931137063607
H           23.05491258116263       20.40901405298629       23.71547558471668
C           24.05458857528065       16.97684625933396       25.94913134265490
H           24.86187659232835       16.26244193769048       26.11203918852817
H           24.35141300805548       17.93554977689095       26.37463018146046
C           22.76326708328527       16.48820567871808       26.60267458645552
H           21.94324254800326       17.14296174895998       26.29427405789927
H           22.53921637252979       15.47903336815580       26.24547208478517
C           22.90239940066035       16.50664882029814       28.10279203679777
C           22.67670772094952       17.68754048245521       28.80613176269821
H           22.37125602743312       18.58169934777591       28.27228397370427
C           22.83370089717846       17.72446536900340       30.18364085660154
H           22.65197175347974       18.64767322953712       30.72261967740961
C           23.22223156945034       16.58230547714115       30.87067483276972
H           23.34441670270153       16.61080383674610       31.94745840516203
C           23.45223829356863       15.40360517998203       30.17498846510206
H           23.75516175047698       14.50859135123986       30.70700815625042
C           23.29536086264142       15.36636917945639       28.79678286527476
H           23.47319669822112       14.44125928853187       28.25885870600487
C           29.76485029693548       22.54494233013558       15.26269662164312
H           30.31602227514689       21.65426309608548       15.56140281347805
H           29.43432820629147       22.40403531346407       14.23425549949220
C           30.65161994491739       23.78343568122709       15.39344631642398
H           30.29949678243628       24.55772419940294       14.70367986771008
H           30.55215390518324       24.18442767473390       16.40663253896066
C           32.10231614876093       23.46499323547788       15.12574586516567
C           32.47483709151236       22.61351435157447       14.08743901279765
H           31.72054597760836       22.17784011615471       13.44170151718861
C           33.81027820248575       22.30297638144458       13.87649306599722
H           34.08425126144565       21.63254041084645       13.06939779056578
C           34.79133606779575       22.84485606487339       14.69491381692403
H           35.83454693614990       22.60062706107591       14.53063507452677
C           34.42977166156565       23.70185549114159       15.72587590536223
H           35.19036799778249       24.13442032989292       16.36615980991534
C           33.09270185541666       24.00736455576311       15.94066837052413
H           32.81658227768453       24.67321456584736       16.75149715479287
C           21.11181247348405       13.01850586773660       17.53705558868227
H           21.08500362445521       12.58856747424436       18.53804877931818
H           20.50896345501163       13.92615380287742       17.54218015120152
C           20.54818844617745       12.03002818210583       16.52299217001979
H           21.10545845609849       11.09027956504414       16.57496767112022
H           20.66914244576597       12.43791456026779       15.51611381813712
C           19.08801729919859       11.79986955354817       16.82109259227966
C           18.70748626444550       11.14340765722864       17.98970055795553
H           19.46532107436623       10.75508584869384       18.66231682557265
C           17.36492919749684       10.98307079220065       18.29753836787325
H           17.07897407742222       10.47454600437785       19.21160178268689
C           16.38891438489924       11.47320414675869       17.43986210148322
H           15.33971300174652       11.34905521962748       17.68256999922110
C           16.76151192650930       12.12035288356256       16.27072447125145
H           16.00550583193444       12.50513504090063       15.59540410301960
C           18.10525056149067       12.28753848057549       15.96604258266210
H           18.39042068707460       12.79697453821586       15.05214827014081
C           20.11673839376299       16.13812801904380       13.44490893627729
H           19.82769394720640       17.14200562727226       13.13866117815475
H           19.72304946012240       15.42521254037791       12.71881315327135
C           19.57439606561339       15.82225398223217       14.82906356395788
H           20.04616750145799       16.49715530914108       15.55027110443667
H           19.88084483814811       14.80757988568334       15.10302030585795
C           18.07833241248591       15.92993729196686       15.00029583758705
C           17.24120442679019       16.52127923396933       14.06016247714179
H           17.64494672928969       16.92650339853007       13.14015427106172
C           15.87402794188304       16.61074914883763       14.29405557259894
H           15.23493548741961       17.07862138055584       13.55357036583788
C           15.32730321565891       16.10368647144696       15.46347415888977
H           14.26012741179404       16.17058382310988       15.64103040528965
C           16.15663412428272       15.50832054106684       16.40521831118558
H           15.73653219936173       15.09545785672666       17.31575523755843
C           17.52194591530101       15.43055960158344       16.17803452892619
H           18.16577744450360       14.97762572696449       16.92571845034980
C           28.15639206934592       20.25040217436506       22.33915779283538
H           27.46851664657173       20.62093964194118       21.57754740718566
H           27.92057554880923       20.73292743239502       23.28712218707248
C           29.59452940085864       20.55792595153109       21.92970669920674
H           29.85000761589647       19.95804879754065       21.05195272867651
H           30.26795542212017       20.26519136196911       22.74068101075208
C           29.94799264329971       22.44191600616659       20.29622320442581
H           29.95814031718556       21.71141561324711       19.49495345891896
C           30.13006054862294       23.78322799208706       19.99495439703666
H           30.28049150377102       24.08831914769378       18.96501635464907
C           30.13031079429705       24.72569061036098       21.01437162417562
H           30.27658341457033       25.77507470471545       20.78619549795875
C           29.94447717818892       24.31618338494587       22.32931362450903
H           29.94386279713892       25.04819758357502       23.12916170415408
C           29.76893375888949       22.97221835454531       22.62615694759195
H           29.63711875499797       22.66020893763470       23.65668487797409
C           29.77321510307450       22.01975717336960       21.60895030230198
C           23.10781851614565       19.68153569283437       10.46393786955486
H           23.85078833018505       20.04687784989051        9.75499383441905
H           23.63212214063513       19.25022524898185       11.31724180433688
C           22.21174889684238       18.63097061514752        9.81385303570706
H           21.44868663916444       18.32304746164515       10.53454712018450
H           21.69977621085524       19.08401583172420        8.95939294576790
C           23.00618219449922       17.43030416138247        9.36097659684795
C           22.78045407351275       16.17972530103491        9.92853520527626
H           22.03974827312802       16.06685753949132       10.71350865857975
C           23.50699985807825       15.07316784323066        9.50827615780501
H           23.31985904459643       14.10437407334334        9.95868505328370
C           24.47056171584823       15.20753028133157        8.51726069159418
H           25.04163662144643       14.34594259196771        8.19088208099199
C           24.70407043967815       16.45354975502347        7.95040246636663
H           25.45843984610050       16.56589577749179        7.17953764816072
C           23.97607682750006       17.55780055253615        8.36802305833922
H           24.16098285399818       18.52511562126699        7.91312997043981
C           25.25322177526737       25.20747502772574       12.76746824378811
H           25.60700051798187       24.81727442679750       11.81240540914691
H           24.40893824335880       25.86956253993810       12.57248449654754
C           26.39108331960790       25.96489111441321       13.44380576746749
H           27.30248959164846       25.36234722720441       13.37944665661328
H           26.56941706196399       26.88480372631041       12.87361693978001
C           26.14137429621270       26.31539902272183       14.89097798917646
C           24.89234316263874       26.73938139151934       15.33880867493568
H           24.06440474645290       26.82359494105551       14.64420664320388
C           24.69335998280389       27.04986313854785       16.67608727429847
H           23.71446489861502       27.37417332312971       17.01168410902086
C           25.73966818786937       26.94724303358396       17.58251639337178
H           25.58018715750887       27.18679186482153       18.62753083739213
C           26.98822387181133       26.53075103687511       17.14482013151497
H           27.80957229935659       26.44119686395120       17.84701832675544
C           27.18668706505600       26.21718788703862       15.80763831366101
H           28.16722918775367       25.89809136340913       15.47110436909524
C           26.85494812163322       14.67520916444363       24.00381591144613
H           27.69597538579345       15.34502258971047       24.17292721096961
H           25.94421075269205       15.18142935744945       24.31852213901981
C           27.03876687406061       13.39073288088123       24.81253176691144
H           27.83721807632399       12.79414123258547       24.36444258814875
H           27.34691819155198       13.66791603298262       25.82638699782765
C           25.76002014133224       12.59696790680131       24.88128226848368
C           24.69534603892059       13.07033334451081       25.64650204352685
H           24.80792394329234       13.99064537378785       26.20909528622453
C           23.50488717955420       12.36168812084032       25.71727713242444
H           22.68541760884581       12.74282747625832       26.31641210368036
C           23.36909990540189       11.16339714897029       25.02992756825742
H           22.44191646731544       10.60506741659887       25.08655693932834
C           24.42779639608496       10.68136833807742       24.27363586054774
H           24.33087806786949        9.73771315293777       23.74863441777069
C           25.61438643380770       11.39960943754805       24.18874743077714
H           26.43527600947413       11.01954070487895       23.59030545861010
C           27.42228387919277       11.91353709489823       19.51677749889591
H           27.52930048275151       12.08696064054056       20.58862841483340
H           27.15919085866149       10.86812433210619       19.35828751141776
C           28.72821694541305       12.22788398457298       18.79683744753844
H           28.60852357199400       12.04173046007077       17.72623637241827
H           28.95807083721565       13.29049497848842       18.92275620518116
C           29.85523002815349       11.40013773861692       19.35344121446269
C           30.29986905802985       11.60653731675375       20.65712821955636
H           29.85196222804135       12.38976379838381       21.26058353730179
C           31.31409495010442       10.82560500048090       21.18797741444103
H           31.65376680415073       10.99868792458132       22.20306636858658
C           31.89851041547912        9.82898893718246       20.41775314288742
H           32.69503251805519        9.22028019982646       20.83012073435672
C           31.46807903801245        9.62398081758704       19.11469399650356
H           31.92711070963857        8.85245565302218       18.50640474891126
C           30.44895490872159       10.40344494089154       18.58563936032371
H           30.11496189673261       10.23814030849541       17.56690239920172
C           23.44019469072277       12.34840653615128       21.37766834686339
H           23.81226569264830       12.97127510827116       20.56315606833464
H           24.27908848457112       12.11580036566095       22.03328246428479
C           22.81247471123214       11.06934057010334       20.82556713680888
H           21.91726135358129       11.33322047557922       20.25510678376385
H           22.49908476614663       10.44347916895771       21.66656382257073
C           23.77554434490021       10.30999468973680       19.94594155254168
C           23.60045243166278       10.28196505611727       18.56587557051423
H           22.76564009396670       10.80656342854188       18.11748171837124
C           24.48611563247442        9.58961374647069       17.75165976450256
H           24.32609593463317        9.56769815303899       16.67945732484063
C           25.56092787103271        8.91221657169115       18.31045992215752
H           26.25314480736670        8.36949295714564       17.67724070854957
C           25.74002107030404        8.92879273726065       19.68813658333672
H           26.56925752226613        8.39109993217855       20.13410853600649
C           24.85374793066261        9.62400680123993       20.49957249155242
H           25.00210204830268        9.62683523331390       21.57341243684590
C           23.76971358177840       11.56414461979063       14.16527490911731
H           23.85092302708775       10.49323943281001       14.35419210427894
H           23.10851403650841       11.99281851316137       14.91791431849811
C           23.21234073694757       11.82485253857644       12.76683068530601
H           23.64896015420987       11.11138339016286       12.06066417552191
H           23.50966428119458       12.82629324609620       12.44219127085315
C           21.70659683060040       11.72629723179131       12.74255994052356
C           21.04932098413243       10.63276182842139       13.30377232528726
H           21.62086480830428        9.82882611758192       13.75453011548654
C           19.66390453506601       10.56064577543243       13.28547433857301
H           19.16378436831538        9.70738085909615       13.72974209530278
C           18.91870305690439       11.57568859517181       12.70018917444511
H           17.83680695246884       11.51393638647267       12.67916301561838
C           19.56673244217277       12.66473922124498       12.13427343831929
H           18.99092233595092       13.45591936777827       11.66690339555977
C           20.95198108152116       12.74149209913456       12.16082016351902
H           21.45231099940453       13.59799701448078       11.72157989858163
C           32.20534280256947       20.72319648104327       17.42763316614900
H           32.26473680805901       20.53433002723830       16.35492086525296
H           31.58374122034839       21.60173019606011       17.59615852515810
C           33.60063427395012       20.95777905506365       18.01014972339914
H           34.09832733136632       21.72551245598416       17.40916685414052
H           34.18109885899401       20.03420509383078       17.93741999045141
C           33.49455453120392       21.40849875623957       19.44535287953535
C           33.38961083537025       22.76274096649508       19.74999421353680
H           33.43456144022252       23.49920530952102       18.95450030046636
C           33.22787850049769       23.17780234381854       21.06419589830887
H           33.14762434840202       24.23558573021027       21.28878705007761
C           33.15314893034500       22.24250477294767       22.08672828696500
H           33.01359120392831       22.56688315703184       23.11164810683858
C           33.25512317873589       20.89020137630120       21.79059584207069
H           33.19869867136947       20.15330166410450       22.58472296032944
C           33.42931297196260       20.47639528212759       20.47805437349281
H           33.51003857171987       19.41905241444551       20.25219325273321
C           25.86612975873071       16.79218974662977       11.44346830625870
H           25.25042932191055       16.10230936272217       10.87036853802906
H           25.72202588271220       17.80191315992942       11.05675965104282
C           27.33248145006475       16.39424798694983       11.33215415755704
H           27.47115982806249       15.38676363487672       11.73595872993887
H           27.92931258585172       17.08193784833464       11.93982241876597
C           27.77427787174370       16.45910748633882        9.89477357489197
C           27.99950606365253       15.29369458214971        9.16763609537542
H           27.88493771176187       14.32779327929006        9.64825865497106
C           28.36973947456333       15.36315793539330        7.83151445738047
H           28.54615357144897       14.45046084660826        7.27335190085226
C           28.50987346037137       16.59665240492146        7.21093994839317
H           28.79674599317271       16.65014302652084        6.16695730200125
C           28.28207626607420       17.76241279321302        7.93102794769588
H           28.38965048758138       18.72816151087197        7.44979782121398
C           27.91536541744328       17.69456931995297        9.26610380496636
H           27.73483393337130       18.60715773785361        9.82588515722712
C           27.02650600243228       22.07541782064949       11.48012130790356
H           26.11219055652422       22.42787692588018       11.00011826474796
H           27.11795300869976       22.58304781392505       12.44252756937083
C           28.23741644658027       22.41726188679324       10.61549093006775
H           28.04953039721500       22.11873330515748        9.58102994713966
H           29.10610117400063       21.86151279220889       10.97842587083119
C           28.49106238984979       23.89882158765981       10.72301620111300
C           27.72950103573506       24.80400509443910        9.98766705942447
H           26.98983488009072       24.43898932954750        9.28315685389234
C           27.92023132020414       26.16970276464224       10.14547740426430
H           27.32575246632571       26.86691887648290        9.56573814303155
C           28.86673038992067       26.64339696647565       11.04441432747983
H           29.01371637753552       27.71020322886721       11.16743369721523
C           29.62657408952782       25.74581404905502       11.78283602301457
H           30.36867331790883       26.10916542021008       12.48494833620075
C           29.43700459430132       24.38049099025500       11.62407203755533
H           30.03527486217291       23.68150771024814       12.19894767902802
C           31.74818244478669       18.19365995242734       13.10801452550770
H           31.94337667875403       18.57350665390119       12.10512628311929
H           32.70229264060368       18.04953457826511       13.61699043855992
C           30.99240930011305       16.87066988185009       13.02760171512266
H           30.84145331063215       16.49485330586625       14.04515133877449
H           30.00402993763040       17.04898095194781       12.59627313293461
C           31.73078210782556       15.83727445514037       12.21854637781575
C           31.18985731266639       15.35672917269749       11.02967322770219
H           30.23613028409749       15.73549321408498       10.67913110651506
C           31.86030322263698       14.39161579027723       10.29109461193140
H           31.42407446030324       14.02102835277565        9.37004110514798
C           33.08315347798155       13.90460439989243       10.72983460979773
H           33.60724278678313       13.15042078744903       10.15404307033772
C           33.63291645911237       14.38549356605336       11.91122204555673
H           34.58987121024514       14.01096370211755       12.25707898539359
C           32.95975776071575       15.34505545836763       12.65351604868402
H           33.38517949965941       15.70280823313372       13.58552812055053
C           28.55981711513873       12.62320848669445       13.67722254978482
H           28.02054357148739       11.67472725900094       13.65996533279321
H           28.00484301655370       13.32917561452274       13.05869445591620
C           29.96428022615213       12.46110837525740       13.10687093558794
H           29.86988025546658       12.02246840573568       12.10619943923324
H           30.41696864764368       13.45022318519194       12.99002843632830
C           30.86720066292027       11.59324401344930       13.94751314397688
C           30.43637602654342       10.36432646666060       14.44298613617314
H           29.43774861698498       10.00620564656659       14.21834093197166
C           31.27776652024163        9.58768448185866       15.22577187358950
H           30.93177022812498        8.63042744114951       15.59947944563718
C           32.56148024178704       10.02690046303019       15.52447408301536
H           33.21586235734355        9.41883157639975       16.13847327431350
C           33.00351270741861       11.24260336652763       15.02470261930151
H           34.00852119117073       11.58856420850043       15.23947107510745
C           32.16141206026526       12.01889608637199       14.23914707920558
H           32.52274594844940       12.95532755998591       13.83042579254344
C           33.54766363153579       14.38502737833641       17.36377093367487
H           34.34858828633953       13.88316750444874       16.81749034604295
H           33.99864375342381       15.07194492304668       18.07877331825036
C           32.69639099366750       13.35100408357927       18.09648097952082
H           31.83378266169315       13.84887472532881       18.54643674716069
H           32.33116190582179       12.60991108712821       17.37998091044447
C           33.51199221325858       12.68211328223207       19.17190613544901
C           34.32120652108613       11.58906551052243       18.87646124482057
H           34.34870852082771       11.19512749058445       17.86613938515367
C           35.08256935440750       10.99327638009949       19.87201490060325
H           35.70575010532442       10.13818396268756       19.63463628522828
C           35.04583673781241       11.48800038166445       21.16885338572770
H           35.63957332709973       11.01991878845381       21.94579174505019
C           34.24398285324963       12.58123782138647       21.46796920571496
H           34.20911480706729       12.97114446237256       22.47931037004199
C           33.48262820386161       13.17552259029399       20.47281166005916
H           32.84443518590620       14.02195526909680       20.70531683902517
C           31.32260273685649       17.02610052470371       20.88926419138215
H           31.95427264968360       17.51594253453666       20.14875987085366
H           30.49568353064937       17.69420255861430       21.12787439533261
C           32.15136726159936       16.74035936853586       22.14094077836296
H           32.65564097508155       17.67106906919734       22.42279536746248
H           32.91866765572024       16.00094492819491       21.89835855177581
C           31.31270648979839       16.26126744005786       23.29547643218449
C           31.23589560323542       14.90625670800464       23.61169985273485
H           31.77896640996651       14.18189924018180       23.01520327927547
C           30.49793262860100       14.48057395663640       24.70781867137186
H           30.46031757836474       13.42537103514606       24.95437175263937
C           29.82021660951673       15.40412556906808       25.49243715982263
H           29.26621487490256       15.07595634468942       26.36460490884386
C           29.86410827925630       16.75292074040139       25.16287785902072
H           29.32576672499490       17.47743909380114       25.76356446723516
C           30.60588470010822       17.17719478176493       24.07122742304654
H           30.64146370605069       18.23254944477093       23.82439755412572
S           18.79407875246570       20.72582884412182       18.92313555585081
S           21.50500814117912       18.75320363867992       22.18320617216198
S           21.89834974321396       22.80610543948692       16.11541132904561
S           19.37556500451500       15.45629553841655       19.33244835817406
S           19.34686543739080       19.29187324088974       14.30226119779037
S           24.13574891430522       20.94064448246354       19.50938427522596
S           23.75253247432736       17.25167140452012       24.19188516546850
S           22.19002668052248       13.20547138552439       22.36463866754487
S           22.83730318160975       13.43782224546881       17.18139332087387
S           21.91855312395037       16.04428092469263       13.32995256383172
S           27.97319267487573       18.46559467711845       22.55170646989788
S           22.10713309285774       21.09985845444730       10.96421751301529
S           24.61449455642482       23.86506250379512       13.79924474133812
S           26.71842153633007       14.27271450584110       22.24597608706182
S           26.02290880163955       12.91714629027932       18.99301696898408
S           28.35056423726708       22.72097156936688       16.37321321387117
S           30.71492009481807       15.49629055790171       20.14120763947253
S           25.43029369507271       12.23918082483875       14.35524301529580
S           31.42238615380743       19.32897232801274       18.26834924985279
S           25.29184679220254       16.79163027760568       13.14551615367704
S           26.83971056826883       20.30345547519154       11.74452039231497
S           30.86137017047405       19.46254663307726       14.03338581737170
S           28.49350725234122       13.16758875731472       15.40341313415465
S           32.63111875868572       15.34237110783840       16.13356851166517
