474
 energy: -792.314295668918 gnorm: 0.000751056475 xtb: 6.5.1 (579679a)
Au           1.18308158253884        7.28085304883948       54.50066318217339
Au          -0.46320413226258        9.56597543135399       54.68916916096028
Au          -0.71954632790260        7.62104560625067       56.65714284656865
Au           1.70321390681002        9.02827389949588       56.54687815209756
Au           3.84285524815989        6.81293837426885       56.79706411921396
Au           3.72028094128459        9.44991421216633       54.41079165312068
Au           3.12244332649581        7.21692268134568       52.50530261088507
Au           2.99681014262441        5.13663506033184       54.42952849435363
Au           1.07460149858488        5.26490214977091       52.25178749824961
Au           4.77186117383085        3.67640002852398       52.54552906515963
S           -2.16056037146006       11.25807497319853       54.26287362014774
S           -2.37796099475491        6.91663777606645       58.32077847806910
S            5.26593170312302        7.87191742076863       55.22060052176074
S            4.56004225194715        8.34627291573178       50.80206647544335
S            4.59260656461507        3.26747870327551       54.86144742808215
P            2.50061257882448       10.26796045277502       58.43597606725783
C           -1.29238580637600       12.73936862075592       54.57770660253569
C           -1.22416045513927       13.77400140159246       53.65280797114722
H           -1.68177987332440       13.65692048359405       52.67861149980676
C           -0.58475295862942       14.95909755237808       53.98666210539470
H           -0.54024119878134       15.76469673376493       53.26250336743369
C           -0.01464890444067       15.12185423373068       55.23888011972274
H            0.48006407506455       16.05219252158367       55.49299653606585
C           -0.08803795798090       14.09481437211231       56.17962977746500
C           -0.72048145858448       12.90653576816537       55.83844336340030
H           -0.78759994663121       12.10002302592693       56.56067773384032
C            0.47728573438248       14.29214143666442       57.55832245983184
H            1.47357575870670       14.73259951240691       57.50840588238882
H            0.53659664635613       13.34512873891840       58.09408759878876
H           -0.16279371593220       14.96904090071098       58.12778464182784
C           -3.18357684140128        8.40086459053857       58.79978396015537
C           -2.94662557987455        9.62392326868773       58.18400604789573
H           -2.26145238096729        9.68807960873713       57.34857699198324
C           -3.59738184805566       10.76332529641736       58.63329026409045
H           -3.40914563324005       11.71225737760469       58.14446200668870
C           -4.48580375656517       10.68922393538843       59.69435413426542
H           -4.99548035402267       11.58253638508204       60.03635924388805
C           -4.73096656591498        9.46805562753785       60.32235046331301
C           -4.07379169810593        8.32979414967539       59.86918775306964
H           -4.25183002956206        7.37127463723395       60.34224589767946
C           -5.69731045809310        9.38805258995485       61.47029543958255
H           -6.67302410944581        9.77200025124876       61.16908552483677
H           -5.34149714095412        9.99385609775159       62.30527002639066
H           -5.81625672456698        8.36008630256420       61.81182137852318
C            6.51511176920395        8.78614689873441       56.04076098502959
C            7.44440085421192        8.10138167883015       56.81704443129293
H            7.34556582097188        7.03272816595944       56.95506962137819
C            8.49816171811161        8.79275433731362       57.39807409318617
H            9.22402210167412        8.25465472697935       57.99666302085500
C            8.62951525069520       10.16071498243408       57.21114557448763
H            9.45648387013161       10.69253050012800       57.66707708517652
C            7.70360780586858       10.85435886854917       56.43405183425472
C            6.65030736805386       10.15693733750443       55.85476093126248
H            5.93110852590333       10.68511027008917       55.23902715936739
C            7.85220447828633       12.33236397988958       56.20732020899607
H            7.98090132860548       12.85254537257740       57.15722281010073
H            6.97797108024048       12.73948414532033       55.69944381654598
H            8.73314991832484       12.52958591322379       55.59375032055686
C            5.96359921995109        9.01237095473295       51.61077778584865
C            6.27118287997060       10.36604384599378       51.53962658534354
H            5.62839519289772       11.03898785342340       50.98468422912991
C            7.39988232315407       10.84805074261343       52.18631322855196
H            7.63538608326757       11.90492484464085       52.13356162820466
C            8.22087625445658        9.98765210201872       52.90009013289323
H            9.09697463722757       10.37450846868516       53.40757012570324
C            7.91872445008380        8.62951059067289       52.97580110951329
C            6.78516595466454        8.15053472470095       52.32875605424806
H            6.52917051727051        7.09934438687471       52.38948597089563
C            8.80179044862234        7.68626063293578       53.74179016225450
H            9.57187307258578        7.28148650392049       53.08198051691033
H            8.22080006933550        6.85409621827736       54.13975847754929
H            9.29793820292925        8.19850983065925       54.56565396241640
C            6.08189065036702        3.88500248804866       55.54642421247214
C            6.09363611751727        4.25420678426382       56.88883202121302
H            5.17871626168016        4.20820049580986       57.46131812065625
C            7.28009916922272        4.63613785924063       57.49657049725953
H            7.27990266371791        4.90595034071000       58.54693206280976
C            8.46345050172129        4.65738446545560       56.77097792533649
H            9.38918954740264        4.95038728404815       57.25278675035828
C            8.46493744681559        4.29157226053739       55.42576235351853
C            7.27102249172315        3.90463913336771       54.82636880306319
H            7.26806082831873        3.59342313538430       53.78849719534603
C            9.74832255553707        4.26986329150625       54.64348615149484
H            9.55615238226084        4.35583725057027       53.57413616951406
H           10.27088351999771        3.32736456578030       54.82028804981697
H           10.40518588215107        5.08260209815550       54.95339246085154
C            1.20664744920972       10.84480618812755       59.57432261017240
C            0.11454994357237       10.00672816718868       59.81497545383867
H            0.04410052981514        9.05485937265808       59.29892645077398
C           -0.87795725130413       10.38196445514449       60.70578466908385
H           -1.71106411709947        9.71540443792691       60.89507738198935
C           -0.80682155709686       11.61095012755917       61.34726122767461
H           -1.58980896590480       11.90945789875768       62.03438704891447
C            0.26760966379295       12.45610822554303       61.10632989965828
H            0.32724571550210       13.41631006526517       61.60538007608078
C            1.27455093616087       12.07508183901714       60.23219083137621
H            2.11961036669880       12.73298939104740       60.06489440423380
C            3.44970886750423       11.74335846587205       57.96958212771280
C            3.11435685484117       12.38086153738299       56.77199883860507
H            2.30618853409989       11.98944558373753       56.16397958549884
C            3.80200919215060       13.50878972134949       56.35371740805825
H            3.53242744861920       13.98720581095819       55.41918153315385
C            4.83534014286847       14.01727665083525       57.12958929964578
H            5.37349340172104       14.90036733206390       56.80587008033986
C            5.17479070439333       13.39455454324771       58.32379387869573
H            5.97738385032186       13.79192267287023       58.93425829240597
C            4.49024656681512       12.26422649811072       58.74371830350049
H            4.76570623533449       11.78327528677215       59.67518435127246
C            3.60750647133194        9.29341694869267       59.49827516836422
C            3.15789817818903        8.67392658817132       60.66561192477147
H            2.14301673851578        8.83614443476480       61.00976646727256
C            4.00491540868622        7.85546700208818       61.39772763189030
H            3.64504887616567        7.39020898735326       62.30804129942109
C            5.30742829195857        7.63461836375265       60.97048892382544
H            5.97024676808273        7.00128738993803       61.54828549126180
C            5.76022789083018        8.23347928791959       59.80234028972831
H            6.77500879435612        8.06652173665957       59.46078227429444
C            4.91643221191275        9.05091022209310       59.06739002341106
H            5.27850635536579        9.52613275092394       58.16295368670492
Au          -0.94100113461751        5.15574001738011       50.00347777059888
Au          -3.22755023036814        6.80309450840783       49.81536023823997
Au          -1.28039685765783        7.05903133665191       47.84615179118860
Au          -2.68909519722310        4.63604240863385       47.95607593290641
Au          -0.47383214506552        2.49593345901779       47.70612861338570
Au          -3.11202309469560        2.61770558955694       50.09295772638750
Au          -0.87733496200684        3.21713213856308       51.99902478125731
Au           1.20356259170452        3.34322118379502       50.07463323935552
Au           2.66299139164018        1.56685873850978       51.95799434182247
S           -4.91865538724996        8.50024733544385       50.24074150388098
S           -0.57713385462128        8.71755408426798       46.18302554340390
S           -1.53249290785650        1.07341590439284       49.28343203467427
S           -2.00702011881835        1.77933874348424       53.70170169009146
S            3.07204573806528        1.74687985813044       49.64220593539937
P           -3.92860877112363        3.83880205500843       46.06776874558704
C           -6.39983976822677        7.63180578476587       49.92608640511791
C           -7.43446663899121        7.56355901544261       50.85100158452287
H           -7.31738515361692        8.02117253861890       51.82520147716707
C           -8.61957658328549        6.92414760904578       50.51713730997626
H           -9.42516908300156        6.87958788938818       51.24130428301684
C           -8.78236956917216        6.35408504027796       49.26490101164161
H           -9.71271158653126        5.85936714640381       49.01078883099128
C           -7.75535293796234        6.42751657613729       48.32412941471096
C           -6.56705912291958        7.05994283845681       48.66532698696783
H           -5.76057739832410        7.12710206383821       47.94306280097190
C           -7.95273397251108        5.86225284975501       46.94541007278806
H           -8.39323985347899        4.86597961640402       46.99527428841994
H           -7.00573733323278        5.80291890586034       46.40961988476723
H           -8.62961289842213        6.50238242292839       46.37597757505065
C           -2.06147451366281        9.52288998954514       45.70391131381134
C           -3.28453546547692        9.28594890678168       46.31969356299036
H           -3.34869635683526        8.60079531435156       47.15513912434729
C           -4.42393305609502        9.93670537135187       45.87039922427672
H           -5.37287930473783        9.74844637232895       46.35919199303628
C           -4.34981520630136       10.82513229935326       44.80934049237175
H           -5.24312375225508       11.33479367133892       44.46730539083757
C           -3.12863180088070       11.07032344238892       44.18138759332230
C           -1.99037964916159       10.41315560654539       44.63456358212732
H           -1.03184056597319       10.59122099443658       44.16155574913186
C           -3.04858901885749       12.03666319530477       43.03344883556423
H           -3.43259585767367       13.01235676928093       43.33464332365025
H           -3.65432177051273       11.68082023961671       42.19843598754264
H           -2.02060174651501       12.15564787999546       42.69199709868595
C           -2.44678733124517       -0.17558738248542       48.46305039677528
C           -1.76199162779335       -1.10498334974135       47.68689860621092
H           -0.69332047459512       -1.00621548573524       47.54895344231707
C           -2.45334560872160       -2.15877786884264       47.10589146338434
H           -1.91522761854635       -2.88468398329760       46.50736876668277
C           -3.82131883969432       -2.29009172480490       47.29273047406213
H           -4.35312540430366       -3.11706499132361       46.83678785050513
C           -4.51498537172989       -1.36413805053254       48.06975165091764
C           -3.81758988077211       -0.31079121940253       48.64902546726645
H           -4.34579983987089        0.40840782674821       49.26471710516439
C           -5.99301068440964       -1.51273198303203       48.29637605764551
H           -6.51312597656699       -1.64149097394446       47.34644424410295
H           -6.40017100084891       -0.63846982053160       48.80416776538551
H           -6.19028468234469       -2.39364213810999       48.90998115573376
C           -2.67299679360513        0.37572284457846       52.89299450139762
C           -4.02667402571361        0.06814388526649       52.96400892291869
H           -4.69967725611290        0.71094550022545       53.51886286659516
C           -4.50862316885938       -1.06055528065879       52.31729263291603
H           -5.56549885350084       -1.29606670335223       52.36997565186819
C           -3.64816100898784       -1.88154686895088       51.60359493338940
H           -4.03497085155247       -2.75765959190921       51.09610774090445
C           -2.29001689534152       -1.57937672193654       51.52797557786462
C           -1.81109565425303       -0.44582311375240       52.17506839388884
H           -0.75990063057993       -0.18981970572993       52.11443052070338
C           -1.34670427863681       -2.46242941957357       50.76205170431530
H           -0.94202648144010       -3.23255939458329       51.42186482442823
H           -0.51448243281548       -1.88143767851347       50.36420565479234
H           -1.85887855698718       -2.95851386654195       49.93810347753597
C            2.45451433945038        0.25754867329489       48.95732392790553
C            2.08523039406513        0.24579171263824       47.61493695967616
H            2.13117164323460        1.16071698162027       47.04245137614121
C            1.70329575180095       -0.94067967475466       47.00721697759661
H            1.43344367550397       -0.94049093683651       45.95686475227298
C            1.68208447614503       -2.12402676269092       47.73281750763416
H            1.38905520093892       -3.04976762382924       47.25102463748971
C            2.04796442216906       -2.12550468628875       49.07801648047877
C            2.43492396091511       -0.93158057530538       49.67739198319688
H            2.74619328148230       -0.92861625021381       50.71524748310780
C            2.06970644754676       -3.40889761312545       49.86028402588839
H            1.98377915199773       -3.21673181966575       50.92963768717419
H            3.01219343735175       -3.93146676538720       49.68344214775669
H            1.25695205239197       -4.06576019616975       49.55041418537347
C           -4.50536720076811        5.13278861695669       44.92941657237814
C           -3.66722927412501        6.22483180084252       44.68872819388753
H           -2.71535037652780        6.29524351918484       45.20476653373449
C           -4.04241816676683        7.21732384937565       43.79788067028456
H           -3.37581400376396        8.05038655844582       43.60854762654049
C           -5.27141201780993        7.14622665141635       43.15641293499906
H           -5.56988161308967        7.92919992163718       42.46925521246333
C           -6.11662649849214        6.07184925789985       43.39738784283748
H           -7.07683511372406        6.01224217798795       42.89834811349382
C           -5.73564635651538        5.06492030676938       44.27155757778343
H           -6.39359104798564        4.21989652242861       44.43888926765972
C           -5.40402421151223        2.88976954940414       46.53419117744441
C           -6.04151645955489        3.22515966178850       47.73176670278717
H           -5.65009130545592        4.03334034899537       48.33976370742470
C           -7.16942928209505        2.53750576768735       48.15008002840734
H           -7.64783686364221        2.80710606276566       49.08461487507164
C           -7.67790647033648        1.50414166131537       47.37424531304703
H           -8.56098052257732        0.96598072934353       47.69799382210382
C           -7.05519918864647        1.16466767979179       46.18003868011379
H           -7.45256584080335        0.36205915016548       45.56959500914243
C           -5.92488516569745        1.84921078514109       45.76008500530290
H           -5.44393451858878        1.57373480933029       44.82862306388097
C           -2.95400638590906        2.73187442095335       45.00556933128303
C           -2.33453513836145        3.18142940183309       43.83820043163674
H           -2.49674461358753        4.19630111144868       43.49401182948005
C           -1.51611172015336        2.33436967828684       43.10609547406682
H           -1.05084888145849        2.69420328295771       42.19577130366797
C           -1.29529433786225        1.03186259099991       43.53336993366888
H           -0.66197475438939        0.36901667409116       42.95559300680306
C           -1.89415528359224        0.57911039089996       44.70153818305507
H           -1.72722530451195       -0.43566775743425       45.04311889364325
C           -2.71152750821805        1.42295687990613       45.43649335943446
H           -3.18679213692389        1.06090361745302       46.34091614139537
Au          -1.18336757951411        5.39822824069167       54.49985117982285
Au           0.46311369834580        3.11315148464228       54.68928730354087
Au           0.71971701955900        5.05793039916085       56.65696403750316
Au          -1.70308703337024        3.64941195274987       56.54700801515833
Au          -3.84273747239413        5.86568056249625       56.79732752321437
Au          -3.72054495180277        3.22872595810018       54.41019911693495
Au          -3.12262832004653        5.46176926663864       52.50555411687420
Au          -2.99672202154756        7.54175166172492       54.42937049916227
Au          -1.07385539935082        7.41332913632025       52.25200606244801
Au          -4.77329759945661        9.00177823944229       52.54594511106775
S            2.16050954055138        1.42093165153597       54.26296064442749
S            2.37787717627520        5.76205872365675       58.32081719703698
S           -5.26593486614705        4.80693203398368       55.22051630854965
S           -4.55975382188452        4.33248558092988       50.80250705280666
S           -4.59252249370033        9.41156628864726       54.86162284083511
P           -2.50058441634186        2.41076843305536       58.43599239154725
C            1.29254219794581       -0.06050539302476       54.57773783562355
C            1.22425736946026       -1.09508461343505       53.65277766288285
H            1.68185114122982       -0.97796557108895       52.67857302284185
C            0.58478293782629       -2.28016808011149       53.98659112241989
H            0.54019321120252       -3.08572752513343       53.26239249008822
C            0.01468440128348       -2.44296088500090       55.23881252546767
H           -0.48009337101875       -3.37327821817757       55.49288510009150
C            0.08815475154298       -1.41598105799324       56.17961850908361
C            0.72066542014935       -0.22772848424797       55.83848010865362
H            0.78783039648896        0.57874324062021       56.56075431526686
C           -0.47716404471115       -1.61331142459405       57.55831453273908
H           -1.47346380859497       -2.05374914543916       57.50841420089754
H           -0.53645189811415       -0.66629962520171       58.09408554537472
H            0.16291170840631       -2.29022069463782       58.12776804968254
C            3.18361203947812        4.27784575839146       58.79967794621664
C            2.94662587895181        3.05477215536557       58.18393965343703
H            2.26144580978293        2.99059786326347       57.34851790821691
C            3.59734768624582        1.91536368025285       58.63326542591300
H            3.40911089779005        0.96642495068013       58.14444723953705
C            4.48576130844362        1.98946675461267       59.69433563359588
H            4.99542627670579        1.09615212200781       60.03635438704146
C            4.73092897470487        3.21064288101580       60.32231613241971
C            4.07378306165516        4.34890546143628       59.86911720115132
H            4.25181602347724        5.30742932846444       60.34216625869151
C            5.69725945606734        3.29069042315194       61.47026715477852
H            6.67300487508468        2.90681655993688       61.16906626250078
H            5.34147621183122        2.68486091399601       62.30523458206937
H            5.81612637506458        4.31866548245546       61.81179569377208
C           -6.51510361293772        3.89270320453591       56.04071649956202
C           -7.44444007079670        4.57747588910848       56.81693659705020
H           -7.34563440257468        5.64613533225693       56.95492770979067
C           -8.49821563113270        3.88610868404975       57.39794960182850
H           -9.22410290782715        4.42421904030245       57.99649619653031
C           -8.62954294551694        2.51813902486365       57.21107542307735
H           -9.45651232543484        1.98632583233329       57.66701079882185
C           -7.70360363151504        1.82448432867956       56.43403023720023
C           -6.65029556386198        2.52190342535189       55.85474398669139
H           -5.93108611297588        1.99371726517074       55.23903521493631
C           -7.85216792351189        0.34646621957772       56.20735804975511
H           -7.98088453650384       -0.17367711950007       57.15727928463974
H           -6.97791161532959       -0.06065968349489       55.69952574569880
H           -8.73309208881341        0.14920044751344       55.59377183919702
C           -5.96361515872499        3.66653430938438       51.61079612017719
C           -6.27120234211448        2.31286334394608       51.53969954963583
H           -5.62838110370923        1.63988572576417       50.98483312805099
C           -7.39991760467035        1.83090021174571       52.18638914790515
H           -7.63542909128998        0.77402547376527       52.13368641798884
C           -8.22092177555675        2.69134473998258       52.90010115225144
H           -9.09703825849582        2.30452483120037       53.40757590817870
C           -7.91876216375657        4.04948873395988       52.97575437321007
C           -6.78519102021547        4.52841996151367       52.32870441625312
H           -6.52918181458495        5.57960948508659       52.38938664799350
C           -8.80181837990785        4.99278662653589       53.74169622910288
H           -9.57191550653690        5.39751819679060       53.08187765321595
H           -8.22082409626497        5.82497858813396       54.13960266998442
H           -9.29794266748167        4.48058581413351       54.56560405840589
C           -6.08178181885346        8.79366542648920       55.54634133383936
C           -6.09358222766060        8.42445959723606       56.88875501887387
H           -5.17867198560496        8.47042491538109       57.46125948804522
C           -7.28006983488713        8.04260161802847       57.49649344030537
H           -7.27989275365668        7.77276847489074       58.54685117289391
C           -8.46342446225302        8.02148338896478       56.77090957925966
H           -9.38918981345202        7.72856181118097       57.25272362527839
C           -8.46488364557681        8.38733236683837       55.42570104416374
C           -7.27092425112202        8.77414089850879       54.82627953905237
H           -7.26795283230421        9.08539319908757       53.78842131781844
C           -9.74832282887019        8.40920412262774       54.64350849842775
H           -9.55624491027947        8.32333894994091       53.57413523032780
H          -10.27081589815688        9.35171329837934       54.82046181188853
H          -10.40522703621057        7.59647877824785       54.95337031867673
C           -1.20658832403108        1.83398016585942       59.57431897680085
C           -0.11453450696904        2.67210712151319       59.81498982556685
H           -0.04412874684218        3.62398901494226       59.29896019774367
C            0.87797835748080        2.29690637998219       60.70580592877747
H            1.71105230874158        2.96350257915987       60.89511595452641
C            0.80689085735173        1.06790838397948       61.34726527924373
H            1.58988452937769        0.76942641054426       62.03439418723880
C           -0.26749861034925        0.22270326569595       61.10631157278211
H           -0.32709848794615       -0.73750820831892       61.60534640579274
C           -1.27444570183195        0.60369397520635       60.23216638495259
H           -2.11947962639671       -0.05424335908098       60.06485574073087
C           -3.44964216559119        0.93537204787167       57.96954320174206
C           -3.11425197615836        0.29787967617562       56.77196554103779
H           -2.30607883378421        0.68932528859208       56.16396228723427
C           -3.80188385631028       -0.83006604697264       56.35367908869872
H           -3.53227948267451       -1.30849055484491       55.41915382883801
C           -4.83523463850931       -1.33855673914090       57.12952738573797
H           -5.37338332340379       -2.22164690592323       56.80579690124649
C           -5.17471789745120       -0.71583463776224       58.32372228397519
H           -5.97732550501798       -1.11320132668186       58.93416919811047
C           -4.49018927050981        0.41449646929101       58.74365831228600
H           -4.76566944218624        0.89544824665772       59.67511794134115
C           -3.60751745389898        3.38531388348938       59.49823065517246
C           -3.15793793649657        4.00480943360611       60.66557074774344
H           -2.14306061382983        3.84260207291835       61.00974307166835
C           -4.00497688373544        4.82326450569242       61.39766102992962
H           -3.64513778171389        5.28851329148766       62.30798942566424
C           -5.30747914039267        5.04410475444024       60.97038448418824
H           -5.97032059605371        5.67742025863957       61.54816990234148
C           -5.76023803733927        4.44525789483632       59.80221185780671
H           -6.77501142654126        4.61220553585972       59.46062717640188
C           -4.91641640601316        3.62783747381637       59.06728246497367
H           -5.27846238925099        3.15260880759131       58.16283669214707
Au           0.94072888925689        7.52251373166496       50.00357585562383
Au           3.22667488861265        5.87575169465108       49.81446402797871
Au           1.28125797595820        5.62019081704272       47.84701702515627
Au           2.68878331847792        8.04197839534475       47.95603491493484
Au           0.47401935003985       10.18203088520964       47.70657819896917
Au           3.11112878457181       10.06083606668869       50.09385454076869
Au           0.87727318613353        9.46203016628436       51.99810090984619
Au          -1.20205886188978        9.33691771745118       50.07436840852028
Au          -2.66266123304986       11.11099226776346       51.95791969315118
S            4.91840507057182        4.17901456209217       50.24077513188150
S            0.57732399393551        3.96172383521825       46.18283697639721
S            1.53239573633783       11.60530629813936       49.28325974611059
S            2.00708822012290       10.89925034406770       53.70139781423593
S           -3.07215601945749       10.93206413686228       49.64224361967820
P            3.92860319601005        8.83997068812647       46.06778704709459
C            6.39978752609570        5.04707517701181       49.92598843138378
C            7.43433743200114        5.11547970536269       50.85097955298082
H            7.31719866486883        4.65796166826630       51.82521645846207
C            8.61941252762292        5.75496726774575       50.51717466120506
H            9.42492966856872        5.79966025887058       51.24141478119822
C            8.78224821023981        6.32493922396860       49.26490550081387
H            9.71256679928538        6.81971160811779       49.01082512818285
C            7.75531442871571        6.25133607731436       48.32405818523311
C            6.56704744689129        5.61884378558327       48.66520241906667
H            5.76061363468230        5.55157913578662       47.94289445356205
C            7.95274243568325        6.81649099677712       46.94530995878746
H            8.39320203876318        7.81278549661293       46.99512535832013
H            7.00576773427129        6.87573431249317       46.40947078274466
H            8.62967747502931        6.17633332733596       46.37597759074061
C            2.06143418958054        3.15569675811582       45.70411570966670
C            3.28453428314132        3.39274477409535       46.31977824373753
H            3.34872034797784        4.07797598008802       47.15515877059531
C            4.42394779427572        2.74206071732754       45.87042026459837
H            5.37288916587924        2.93031582246017       46.35922571600456
C            4.34983400983796        1.85362637779068       44.80937032134084
H            5.24314928713732        1.34395917689987       44.46735618688467
C            3.12864883605476        1.60844106358611       44.18141251151695
C            1.99037927116062        2.26556850426023       44.63463711118906
H            1.03185603435325        2.08752823780007       44.16159169327543
C            3.04859281721267        0.64207004274231       43.03349265073609
H            3.43250668345594       -0.33365931909283       43.33469763486402
H            3.65438042690328        0.99784613557840       42.19849199006066
H            2.02061060706977        0.52316358031215       42.69200101947325
C            2.44670319354548       12.85442331269249       48.46303484923322
C            1.76192701383308       13.78381820616775       47.68687309704207
H            0.69326109447662       13.68504212663151       47.54891426037792
C            2.45328425813683       14.83761147462173       47.10587090673845
H            1.91516672952820       15.56351250458527       46.50734380194936
C            3.82125857873414       14.96892600877908       47.29270533784274
H            4.35306140984824       15.79591077460828       46.83677848337346
C            4.51492684815276       14.04295523004360       48.06970315429138
C            3.81751926536203       12.98961782789472       48.64898078626856
H            4.34573738642842       12.27040378000104       49.26465213237358
C            5.99295880030283       14.19153450654434       48.29630946515432
H            6.51307279474141       14.32025389037854       47.34637063924681
H            6.40011582267509       13.31728717194720       48.80412957570215
H            6.19024717097214       15.07246490542013       48.90988072829834
C            2.67295191082818       12.30303093188326       52.89291258964806
C            4.02661114505104       12.61065052847787       52.96398741351454
H            4.69962184481430       11.96782881620656       53.51881061982722
C            4.50854023601919       13.73938196987930       52.31733023207485
H            5.56541377045393       13.97489410866658       52.37001884239753
C            3.64806241148404       14.56037960230399       51.60366034830950
H            4.03485830568559       15.43651713223184       51.09620980086395
C            2.28992355082429       14.25818629644259       51.52801956507871
C            1.81102317266937       13.12459382087796       52.17505104586764
H            0.75983703335473       12.86855938480409       52.11439347358188
C            1.34659347161516       15.14123595051421       50.76212215960248
H            0.94188111727842       15.91131216951041       51.42197606131816
H            0.51439624292624       14.56023349023674       50.36423939524804
H            1.85876557970753       15.63737762994850       49.93820760951817
C           -2.45439458915339       12.42125964893375       48.95729005309168
C           -2.08523319410347       12.43302989838840       47.61486861724014
H           -2.13125673599876       11.51812643746030       47.04236269535178
C           -1.70331824162838       13.61949923056390       47.00712956495295
H           -1.43348203874315       13.61930332978102       45.95677381393632
C           -1.68212463089404       14.80285852666452       47.73270638950158
H           -1.38915965651118       15.72860537139165       47.25089035376419
C           -2.04795903667098       14.80434027479406       49.07791509153830
C           -2.43483575281054       13.61041174015124       49.67731327739072
H           -2.74608139629836       13.60745472387002       50.71517499755974
C           -2.06971922559674       16.08772298314968       49.86019344691086
H           -1.98384867040321       15.89554739244164       50.92955127643327
H           -3.01219412544106       16.61029519871952       49.68330017509227
H           -1.25694297420512       16.74457868248577       49.55036870950602
C            4.50538089754185        7.54598392434970       44.92943652308797
C            3.66721042866722        6.45397148271282       44.68873149729132
H            2.71532471310308        6.38360170745667       45.20475629586737
C            4.04236805144647        5.46146024077614       43.79789526181823
H            3.37573359077727        4.62842152688073       43.60856383341560
C            5.27137377757300        5.53250287259138       43.15644675261736
H            5.56982564374814        4.74950783956981       42.46930550068573
C            6.11662654375807        6.60684715795987       43.39743273819560
H            7.07684705134192        6.66640637669009       42.89840967249479
C            5.73567566874492        7.61379626319825       44.27159646830113
H            6.39365248782569        8.45879614802345       44.43892246109305
C            5.40403906412046        9.78900012674067       46.53421065682694
C            6.04155208839036        9.45359821736660       47.73177693349943
H            5.65012494374132        8.64542704168142       48.33978808055484
C            7.16950971439152       10.14120928229361       48.15005580983841
H            7.64792602859578        9.87159977270120       49.08458350010760
C            7.67801602198739       11.17454557348791       47.37420245074241
H            8.56111824113695       11.71267671054220       47.69792902248948
C            7.05529217891237       11.51403465765031       46.18001026284641
H            7.45267386920537       12.31663267653192       45.56956040357711
C            5.92493701817507       10.82953351059428       45.76008718963527
H            5.44398530127581       11.10502715055897       44.82863130521356
C            2.95409499678885        9.94693255776513       45.00553724201750
C            2.33461259606322        9.49739419429760       43.83817205481943
H            2.49681005358057        8.48252482887740       43.49397155582793
C            1.51616823445030       10.34445846828978       43.10609720642503
H            1.05091959939971        9.98464675207935       42.19575760569078
C            1.29533699371746       11.64695240747345       43.53340182414354
H            0.66203111921317       12.30981383602549       42.95562787239421
C            1.89418069056628       12.09967607301112       44.70158945298308
H            1.72724863253762       13.11444641983422       45.04319075355608
C            2.71157819255706       11.25582463669428       45.43651077324849
H            3.18681215515047       11.61784760220671       46.34096267399438
