153
 energy: -197.615880093741 gnorm: 0.000087785933 xtb: 6.5.1 (579679a)
Au          -1.79594767252652        7.03444450045193       10.32545594025965
Au          -0.59315808140496        6.95692552519134       12.64350728054313
Au          -1.86649503944444        4.85587630770202       11.74482529851324
P           -2.28828556621949        2.56500777894181       12.11429728370840
N           -3.20379053902142        7.28552695652661        7.74592239041177
N            1.97503472997614        7.78339360343412       13.81959753982559
C           -2.33154500254807        7.89714963902970        8.47199133277457
C            0.73801634784019        7.58043322155733       14.13004427811595
C           -1.89863415688153        9.16492401757669        7.80459314646185
C           -2.55176039301208        9.11210993251403        6.40644524803287
H           -3.05597949562198       10.04773551241733        6.16039552920216
H           -1.79900425438593        8.93368367923634        5.63598293396490
C           -3.55664436071351        7.94745374550749        6.45135598492475
C           -0.36204769965745        9.25555780357624        7.74959072509270
H           -0.07583991287830       10.09443781624277        7.10933028161992
H            0.01004205287702        9.46066757005443        8.75789516733984
C            0.30669253640099        7.98081598672501        7.24050432340761
H           -0.06764264016154        7.69987075424846        6.25595885574712
H            0.12687863780781        7.15636958881449        7.93056108192577
H            1.38304918005224        8.13678827535005        7.16557719339546
C           -2.47390315333053       10.30957421156465        8.67187646050177
H           -3.56592540684951       10.23320147341065        8.66145270043449
H           -2.14729380802694       10.15228954566046        9.70498077459142
C           -2.06258309698851       11.70940876179459        8.22190254847592
H           -2.31539240480470       11.87786514723354        7.17502605273790
H           -0.99174630972572       11.86481371705728        8.35121888002595
H           -2.58991683489106       12.44834372838509        8.82535626049509
C           -3.39514369482095        6.99133180362891        5.27249540021774
H           -2.35470969538485        6.70461710886281        5.13600548987733
H           -3.73025376239117        7.49179848900661        4.36449633647225
H           -4.00136586908531        6.09841226411989        5.41900970951822
C           -5.00128351927746        8.44417927563814        6.48502607315990
H           -5.68643099674295        7.60954850842337        6.62403009753436
H           -5.23244605484718        8.92492726802160        5.53499792936763
H           -5.14899808465165        9.17182696493404        7.28024630165335
C           -3.80626396239075        6.05506027849673        8.19010162115720
C           -4.92953998188470        6.10174754631544        9.02676282491644
C           -5.50030948933816        4.89572741061847        9.43020109331623
H           -6.37938092076825        4.90519049800935       10.06361081821227
C           -4.95414034074305        3.68334013508743        9.04645503192588
H           -5.41584465400567        2.75584952536668        9.36431740445864
C           -3.79351603651036        3.65832843658794        8.29251270550138
H           -3.34219244522117        2.70495261881847        8.04538466333387
C           -3.19224525647120        4.83870071884342        7.86140316094555
C           -5.49777032815813        7.39150003800470        9.58243893444886
H           -4.96427052329517        8.23902369733923        9.14010785308351
C           -6.99356885657956        7.53486070422283        9.27527909115167
H           -7.18486762343583        7.38970302398138        8.21274869605845
H           -7.33182493855034        8.53154364330475        9.55794788829882
H           -7.57750528037683        6.80226528301471        9.83230679453625
C           -5.26905627350705        7.45294372043684       11.09840488791080
H           -5.75663508615477        6.61974485351311       11.60452274438483
H           -5.66740582727585        8.38648779790810       11.49541197050027
H           -4.20151915520022        7.41238028835475       11.31635411944889
C           -1.86403728086463        4.75670605668453        7.13744789279888
H           -1.57980369251648        5.75743528989232        6.79782690422725
C           -1.93294629583467        3.82632592795957        5.92020124191126
H           -2.04777203398758        2.78720969528867        6.22903936463167
H           -1.01384514547029        3.91256640637488        5.34082309684910
H           -2.77471411879524        4.09099077163761        5.28136306245778
C           -0.77083238998803        4.27460562283670        8.09945413958421
H           -0.67013164611312        4.97005119139929        8.93270341892065
H            0.18516431709048        4.21863361794232        7.57876336614337
H           -1.00974969107921        3.28981459618554        8.49991293117793
C            0.56696048594598        7.61235102541077       15.61732911677507
C            1.90764704436447        8.16381643219369       16.14471089303279
H            2.27626823568152        7.59182375158431       16.99724777625039
H            1.79399122055857        9.19992727139271       16.46983853187788
C            2.89164997199064        8.08113750464278       14.96418624671031
C            0.34072477761268        6.13879850028169       16.03221639296527
H           -0.51310729430559        5.75584779363134       15.46361028673757
H            1.21787943738443        5.55611640374049       15.73293178057675
C            0.08223785424185        5.93045442758662       17.52243141006817
H           -0.85636142171476        6.39218775726634       17.82705972568736
H            0.88824044496307        6.34743609619200       18.12620631127526
H            0.01934062707672        4.86139895121389       17.72724812683935
C           -0.64845749555232        8.46562895877442       16.02367646342217
H           -1.55914524738322        7.91761903052838       15.76168351896083
H           -0.64052268297651        8.60433876904929       17.10831125298919
C           -0.68804209074029        9.83180868747672       15.34230828594118
H           -0.78780843680270        9.71546276606836       14.26312777832317
H            0.21587057087228       10.40541776643069       15.54863041139386
H           -1.54416003932328       10.39873683595979       15.70793261171425
C            3.64803648643711        9.38862824208628       14.74242093160874
H            2.97147286035102       10.24025619173782       14.73967329485257
H            4.19607098259798        9.35788169218299       13.80162935518753
H            4.36133967710473        9.52577509092983       15.55455707895814
C            3.90796353587185        6.95679872223369       15.15408616338314
H            4.52833042034848        7.18512630772968       16.02026259463877
H            4.55374123843818        6.87907029163339       14.28154526523135
H            3.41548823437524        6.00269854912572       15.32923179068504
C            2.39416430181472        7.76650688551455       12.44083044290654
C            2.27064328838498        8.94418153738648       11.68970439001256
C            2.66328770295088        8.92220510610344       10.35333393186454
H            2.58414182015890        9.82336185176184        9.75689897923543
C            3.14251744284161        7.76134607530698        9.77114473371455
H            3.45451693710710        7.76260453600157        8.73333146276574
C            3.18894326512808        6.59055897836047       10.50733304229245
H            3.52030291516695        5.67618076102368       10.02939514605022
C            2.80227767588493        6.56421138408411       11.84652340485724
C            1.65507009215974       10.21114062728732       12.24751770688422
H            1.46441812534262       10.07491425581007       13.31652933999246
C            2.57651239001026       11.42341781450429       12.06552799728668
H            3.57150620408802       11.21188201330534       12.45518341637266
H            2.16586210197995       12.27907735477152       12.60128293058514
H            2.66906585413267       11.68929114269982       11.01255817377829
C            0.30255203826095       10.47689101169269       11.57443454582792
H            0.43183676344948       10.68263533828767       10.51205278488698
H           -0.18160112176373       11.33601436176429       12.03842860870348
H           -0.34826699852468        9.60891736378573       11.68355136606258
C            2.78547972360800        5.22803923614023       12.56219315404398
H            2.43642241440049        5.37766172759865       13.58928084836105
C            4.18000477281521        4.58840522454810       12.59427577217840
H            4.48286802224758        4.27476182850448       11.59526119959448
H            4.16759874524774        3.71234339458804       13.24250858957650
H            4.92247982831168        5.29094797770959       12.96969863149429
C            1.80449986111506        4.26381704589157       11.88249663156789
H            0.81231042587994        4.71037914394144       11.83353987316810
H            1.73729075305643        3.33962899991331       12.45694324243969
H            2.12197204038548        4.02340051917255       10.86794967005834
C           -3.96103496799358        2.21465844575586       12.73380819171915
C           -4.31556901962336        1.00398457233055       13.33498869891616
H           -3.57256457262960        0.22408450506091       13.45939541658582
C           -5.61227619168807        0.79671342531823       13.77788525349704
H           -5.87662447457865       -0.14596710804823       14.24311592974792
C           -6.57040094943591        1.79113545898879       13.62794352043089
H           -7.58338051038244        1.62477063338187       13.97546074770545
C           -6.22771382059582        2.99969861114248       13.03762613571838
H           -6.96996886270216        3.78142903260796       12.92263643000239
C           -4.93048298188774        3.20998917545078       12.59733269923605
H           -4.65896102368259        4.15584592721780       12.14010118654932
C           -1.17279160979125        1.84128922518010       13.35806325342496
C           -0.81511587052872        0.49077972504572       13.37419745963412
H           -1.20452613354733       -0.18147424761794       12.61814783504813
C            0.04713825052900        0.00514450406658       14.34532982566680
H            0.31690355865243       -1.04471393827407       14.34640224248612
C            0.56645833804608        0.85769519870827       15.31006673461836
H            1.24320985550831        0.47555988644326       16.06541436843116
C            0.22079945251697        2.20228685395685       15.30172309683773
H            0.62672292124049        2.87401632085221       16.04975389733485
C           -0.64117099142173        2.68890331210383       14.33221407780964
H           -0.90696156281484        3.74069742026811       14.32259914247694
C           -2.08290551148261        1.44552991888923       10.69363160024902
C           -3.14587329903334        0.77131407376227       10.09150438906119
H           -4.14136518101819        0.84447480338154       10.51430981304472
C           -2.93689049402574       -0.00093992152684        8.95748311288629
H           -3.77171728569612       -0.52136220168536        8.50228996079465
C           -1.66631819235891       -0.10971530244106        8.41006413614206
H           -1.50565593008704       -0.71350162932102        7.52462649774217
C           -0.59997778056430        0.55658488751344        9.00083649822085
H            0.39527372413280        0.47317206703653        8.57952111591236
C           -0.80727716132739        1.33404952109584       10.12917625205357
H            0.02744047602065        1.85482965039726       10.58717251362616
