496
 energy: -828.303662104997 gnorm: 0.000663922873 xtb: 6.5.1 (579679a)
Au          10.40498935855842       12.06988034522407       26.39242322394547
Au           7.79899511044576       11.12912518151824       27.11459958936564
Au           9.28393942151053        9.29321821117993       25.42704656484224
Au          10.74841570675179        8.44683611209753       27.96802245067933
Au           8.39931457645702       10.18485974434587       29.94116309915028
Au           7.01084620059748       11.56014340582562       31.89278769553166
Au           5.66118475125640       10.87636120207527       29.51680691748552
Au           8.70403787591404        7.26641280402435       29.81404514431415
Au           7.63244529637041        8.36901224371195       27.44681439953990
Au           6.50976840515558        9.55620721970849       25.11671846317176
Au           9.05941421541480        6.23285236257083       25.62610064957036
Au           3.54695509778813        9.97173890200520       24.49958623827592
Au           4.47752660177536        8.21963311346390       26.94456010297587
Au           5.77613674194745        7.79012244021806       29.51129561971019
Au           7.22979458654264        5.67236749195906       28.11084964567637
Au           6.13052291958800        6.48299728813184       25.44631583966708
Au           5.59628530626347        3.90791103716007       29.61746208053882
Au           4.12431421773570        5.44786595321248       27.21490799204587
Au           1.46984441213658        8.47276499561872       26.57319467313476
Au           3.40102002113083        6.82499089807320       24.78533482744610
Au           1.87735425601542        4.34383356466431       25.76190196848545
P           10.93554623871853        9.35432688655786       23.71840302717833
P           12.40706326785467       11.46265859060482       25.34156989886243
P            2.28960935912554        6.63458399935147       22.69511120145384
P            0.34872610734181        4.71968456548853       24.03669979279581
C           12.54324869158834        9.81315724627616       24.49335853091442
H           12.78558859464741        9.04759209427374       25.23017094708772
H           13.35132839858187        9.83650733254158       23.75954510810714
C            0.51329506561961        6.26668740274949       23.02021555929203
H            0.09487224052810        7.10339398445148       23.57987904255535
H           -0.05301667917825        6.17057370536592       22.09166629856420
C           12.86820082100463       12.61601792841693       24.02705927518610
C           11.95671975506757       13.59605606836360       23.62644081700483
H           10.99576765138064       13.66626100272386       24.12559720816521
C           12.26716004185780       14.47064870700271       22.59736727269370
H           11.54914588287758       15.22487999879348       22.29759249746203
C           13.49431041820128       14.37884727412937       21.95561798319760
H           13.73888674923787       15.06357730462999       21.15238144103276
C           14.41120392299075       13.41097806002937       22.34646122335325
H           15.37177228645636       13.34013505070088       21.85000725367687
C           14.10446545664468       12.53403852704374       23.37351888226923
H           14.82765426961990       11.78479886920770       23.67673652546404
C           13.81920321582300       11.42843068791826       26.48763552416136
C           14.04566886807337       10.31131009757126       27.29778811382964
H           13.41318110033027        9.43391923434126       27.20826329881449
C           15.07809675680557       10.30478201611812       28.22087558062738
H           15.24879533608443        9.42061597569712       28.82475190498807
C           15.89017196099570       11.42189491429863       28.36574297157931
H           16.70087914591662       11.41466564711257       29.08447616067181
C           15.65933388614975       12.54750019829496       27.58711496844217
H           16.28496545280943       13.42498707425682       27.69997981045049
C           14.63048006527270       12.55511993444684       26.65749651807675
H           14.46040250004424       13.43769107972364       26.05167588408217
C           11.23558427159896        7.75110886266583       22.92387847841375
C           11.83597182833027        6.71877962400535       23.65468258036660
H           12.24547527024322        6.91821865660753       24.63795575038943
C           11.92235375670932        5.44092002008417       23.12573291785667
H           12.39591201851098        4.65455659263145       23.70211107082635
C           11.40174704052454        5.16956041078393       21.86699405724860
H           11.46420723025692        4.16820889625402       21.45797144596968
C           10.80479049792429        6.18537023714041       21.13373213643688
H           10.39850108219772        5.98083665247059       20.15002151897725
C           10.71740501040556        7.46548702464111       21.65838672411537
H           10.25129439944480        8.25354581052049       21.07980815847017
C            9.56284783107212       11.37126285421741       22.39681654617235
H            8.83362400108167       11.26252385050901       23.19265032649823
C           10.69727105759746       10.55609851567689       22.38472751761790
C           11.62584529186810       10.70101536594640       21.34750830964428
H           12.51023349110898       10.07419822865978       21.32261966040419
C           11.41900731613324       11.64321812552812       20.35335134198772
H           12.14437559465901       11.74833478919196       19.55526344033560
C           10.28830680687496       12.45011079048762       20.37744307047428
H           10.13021617071063       13.18464709818497       19.59687076372727
C            9.36060972906111       12.31310158547543       21.40038007279275
H            8.47403084312847       12.93624614827602       21.42167741136790
C            2.26904951133993        8.15086592956280       21.69675195539413
C            1.51598211961899        9.25092368508369       22.12775374533582
H            0.84774059991049        9.15242269052521       22.97532177614080
C            1.59540256779557       10.46357713276323       21.45990766438536
H            0.99921724692852       11.30192476698321       21.80071133786872
C            2.43249891879098       10.60029523390652       20.36006304219720
H            2.49461462688795       11.54873172269461       19.84009263060540
C            3.18555880443856        9.51797183143893       19.92763390061982
H            3.84014474598247        9.61793258318822       19.06973030155526
C            3.11238162070627        8.30423103731481       20.59408827319706
H            3.70905293538981        7.46740014358319       20.25107793461055
C            2.85001364724647        5.31120185760093       21.59463558931742
C            2.24819638413548        5.08656383347262       20.35072243712412
H            1.42876123046654        5.71763726338912       20.02525641295192
C            2.69517114759926        4.06076351902178       19.53436666082993
H            2.22124065121462        3.89453425137013       18.57423196168442
C            3.74726912040873        3.25026495728878       19.94215826732758
H            4.09791388826847        2.45223946468520       19.29870651758869
C            4.35079953062886        3.46596868268981       21.17258038555794
H            5.17833049872600        2.84391625944732       21.49256216943968
C            3.90490532741809        4.48815089476162       21.99537970377610
H            4.38079202910770        4.65395085614183       22.95605800627866
C            0.39140350593329        3.40817475389479       22.79171438479819
C            1.36985631511485        2.41498734293081       22.88013036923202
H            2.08037246136894        2.43829631565723       23.69998348346341
C            1.44315935510401        1.40845977808152       21.93058374763224
H            2.20905133160936        0.64606706884368       22.01346586817798
C            0.53760737603394        1.37937047452328       20.87930695988066
H            0.59223711921388        0.59136335054969       20.13774750370320
C           -0.44166918454946        2.35986319562156       20.78027216696609
H           -1.15227702857165        2.33760031664844       19.96252985480949
C           -0.51750485660556        3.36821351753255       21.72673475422327
H           -1.28816161292876        4.12685862379426       21.64469599704758
C           -1.37644455332786        4.80965162953684       24.60074199041392
C           -1.84439124961341        5.98006357024436       25.20888755067635
H           -1.19326897054870        6.84288433548891       25.30410307228544
C           -3.13946805671099        6.04972530537713       25.69583779635384
H           -3.49279939926302        6.97030058699213       26.14594163976613
C           -3.97886652796391        4.94647013457787       25.60751864662284
H           -4.99122496244366        5.00325713973492       25.98928471715282
C           -3.51512405116069        3.77114593858511       25.03343453426197
H           -4.16239437452037        2.90454033448388       24.96895827222797
C           -2.22293022344343        3.69929708280929       24.53591057629254
H           -1.87047445953094        2.77681718937663       24.08930135992492
C           10.75724557781908       10.20874299231419       28.90695632604901
C           11.01513266061082       11.27060549945815       29.45774277775793
C           10.73285519226076       12.89710610233303       31.26297889967369
H            9.96971922875970       12.26310257714783       31.70001961876081
C           11.35981961215959       12.49783055841743       30.07848743315725
C           12.34007826276238       13.32054399394684       29.51317665103464
H           12.82494094929448       13.01697271890958       28.59276598208921
C           12.68910465769904       14.50951285241679       30.13007956418972
H           13.44969465770053       15.14115465331261       29.68607011921632
C           12.07117354025160       14.89264216104539       31.31374868463315
H           12.35113128477412       15.82138931192336       31.79610367751260
C           11.09154929652696       14.08495667633337       31.87707258843094
H           10.60465130576739       14.38079168437479       32.79922489387796
C            8.88535363339695       13.01593165345505       27.41572078005626
C            8.52041448148509       13.97910558899117       28.07776788692155
C            7.58239934192013       16.23371952517662       28.23210499610851
H            7.52479251116003       16.28190108144436       27.15120943943424
C            8.09212533086728       15.08243851759213       28.84514224909898
C            8.15741499179885       15.01912262842581       30.24541064332014
H            8.57468909598929       14.13781554727104       30.71599974125535
C            7.72660741872686       16.08987601745577       31.01249740130587
H            7.78528078744893       16.03524578335185       32.09322072255286
C            7.23342941395660       17.23205656499973       30.39395444459813
H            6.90411569906631       18.07115513641494       30.99483718427928
C            7.16036805373354       17.29922032804300       29.00789553989464
H            6.77146441405809       18.19101329835663       28.53042827141055
C            5.19694301665215        9.88681050134144       23.32913350084133
C            5.81586040516205       10.00513858467349       22.27914340092870
C            6.49735733519851       10.13914304061676       21.04636155393892
C            7.52408043529015        9.25229867490003       20.70014330873086
H            7.81245056850742        8.47318940327914       21.39635181236259
C            8.16650526403708        9.37834801136396       19.48019958942982
H            8.94956925330843        8.67967243063070       19.20875350235890
C            7.80940253327802       10.39268042112538       18.60084102906380
H            8.31555526096962       10.48616804973496       17.64756811348245
C            6.80340552601870       11.28688864148425       18.94512316073688
H            6.52628294262543       12.08125141749938       18.26212540346386
C            6.14736638992319       11.16414964713476       20.15797893893098
H            5.35465182793360       11.85299207183390       20.42540158697995
C            6.45965125036111        3.59722787975853       27.78160353489883
C            6.54099189530317        3.04656656391071       26.69156993973924
C            6.64344988979920        2.38865114657732       25.44465562552527
C            5.49090103592326        1.90684714829607       24.81145195193807
H            4.52700787131206        2.03295960028924       25.29148599530280
C            5.58969922244894        1.26474498336743       23.58934057013803
H            4.69715713793664        0.87295007892949       23.11431741603007
C            6.82861311561811        1.11172674949766       22.97704251991173
H            6.90222625808859        0.60516143935667       22.02204587689102
C            7.97394005381315        1.60038799266997       23.59458152168251
H            8.94017689020466        1.47725297182354       23.11889799350910
C            7.88843843258627        2.23135328304798       24.82360311168104
H            8.77943600221360        2.60851183987750       25.31296516216056
C           10.62335660779952        6.55962294305969       26.85507681858039
C           11.75969897132778        6.42952039669247       27.32992812728290
C           13.05778364757693        6.08317587652932       27.78725267170819
C           13.76421427743340        5.05875288964479       27.14663746395320
H           13.31360408042870        4.54459538102558       26.30575698509582
C           15.02507099010514        4.70415217056997       27.59535902089016
H           15.56657844213787        3.90782162422008       27.09848825001894
C           15.59627873146412        5.36321050562816       28.67667089216761
H           16.58346038236530        5.08214303672555       29.02329496253462
C           14.89959428301962        6.38164073243130       29.31510705055684
H           15.33970260211571        6.89512708188501       30.16227183607860
C           13.63680534668661        6.74033289022749       28.87736153955636
H           13.08311244999513        7.52335255475255       29.38377857879702
C            7.76694094014712        5.86626197626702       24.10893674778303
C            7.52422816310117        5.61116727631285       22.93671860744730
C            7.66033427187857        3.97751022058877       19.61118483217248
H            8.14086658005044        3.13150426795497       19.13389390575779
C            6.82078076488337        4.80546899292492       18.87580926374934
H            6.64906846636873        4.60739545767750       17.82462552998570
C            6.19867946547404        5.88551947488381       19.48960702768729
H            5.53956340926627        6.52853855758009       18.91732772031818
C            6.41570700629612        6.14441891358811       20.83199120654013
H            5.91669539250970        6.97347601306708       21.32088982527578
C            7.27477618273798        5.32421143450888       21.57486888841991
C            7.88995606516915        4.23079281613328       20.95292939424391
H            8.54932446752548        3.59284988949751       21.52983294609860
C            2.97794144635059        3.53226642467156       27.29031457643632
C            3.14648489898499        2.51765622474392       27.95310921100644
C            3.34391572442881        1.34556612216696       28.71761376909712
C            3.07516083975688        1.34271450338308       30.09259339457667
H            2.72674648260208        2.25114952198258       30.56713739975585
C            3.25538511348135        0.18843427418312       30.83374095945486
H            3.05079241541963        0.19594110354207       31.89849390549444
C            3.68832885816610       -0.97716703461593       30.21425584348822
H            3.81031080637762       -1.88503759361317       30.79297537303001
C            3.96205317846820       -0.98090015202983       28.85103736957940
H            4.30147986540878       -1.89083867848589       28.37002088290167
C            3.80041031799744        0.17166660126422       28.10330497657159
H            4.01351515335042        0.17345569933815       27.04057362871783
C            0.89081367261226        6.83206509649427       27.57043500351369
C            0.45744025666419        5.83326307034733       28.12528152028239
C           -0.05475799925099        4.69115562180687       28.79390469001266
C           -1.21676137371967        4.05523334450595       28.34589564976435
H           -1.72614011370327        4.43352166415757       27.46849069944798
C           -1.71537874620965        2.95934146226250       29.02952852629261
H           -2.61584372465829        2.47107031465293       28.67542612730438
C           -1.07379626187972        2.49354826820720       30.16979437222662
H           -1.47347416472381        1.64286217252323       30.70854597540387
C            0.07975391999049        3.12258741689911       30.62168359118108
H            0.57565740405248        2.76902703506187       31.51847347346258
C            0.59550032974142        4.20625947989489       29.93360340450872
H            1.49885628908199        4.69710271870567       30.27906014661810
C            1.77613668509317       10.25692427974658       25.47370801892642
C            0.85430445317049       11.04489529702601       25.69154445746363
C           -0.22534826712854       11.90666017454166       25.98157003739077
C           -1.20222484188769       11.49557336447685       26.89827611779773
H           -1.12022335124499       10.51830589825985       27.36137256799127
C           -2.25344819463891       12.33766998807654       27.21267122899244
H           -3.00144052657470       12.01640649447995       27.92881421304694
C           -2.34722052573594       13.59151767850148       26.62149667426232
H           -3.17022031468235       14.24916733787986       26.87431761073949
C           -1.38576461058919       14.00097519626660       25.70656411198224
H           -1.45945282136578       14.97764538255283       25.24299287918893
C           -0.32924887753516       13.16719830161508       25.38233524590206
H            0.42048575117967       13.48330595467039       24.66702419394727
Au           5.42902075002688       13.63284571657014       30.57350470076568
C            5.90136351414316       13.43741338861617       32.54640961402568
C            5.72140606888625       13.76272299565586       33.71233688082881
C            5.49517190540998       14.23706815044396       35.02464083418274
C            4.18716621752280       14.51953279215466       35.44108574452175
H            3.35980832755612       14.32166238640990       34.76892817239948
C            3.96279563245068       15.06504636849093       36.69367566108222
H            2.95427783527414       15.32444095047394       36.99514355974214
C            5.02737667216135       15.30152304763632       37.55538627143282
H            4.84740218942729       15.73138373707035       38.53351899021663
C            6.32357609410959       14.99049678309736       37.16027636381429
H            7.15319742812689       15.17363108558567       37.83333261356666
C            6.56281339094531       14.47017057793001       35.89920640648944
H            7.57355476201916       14.24423700830554       35.57931680109780
Au           0.80143261043063       12.49565654212309       32.67144735848564
Au           3.50859074352115       11.68139175739122       31.56571579049301
Au           2.14399974046646        9.90094079773501       33.33560805484753
Au           0.74476431272025        8.89764946717017       30.75802541483636
Au           2.93470189439003       10.32855315355095       28.80294047574868
Au           4.76267296428023       11.02906415688867       26.90042476277145
Au           2.75013448182871        7.40081504927895       29.14112600471800
Au           3.83764484674649        8.81672844903041       31.34492616104968
Au           4.93294060768634       10.19006589868901       33.56577729317102
Au           2.31522666127928        6.76958574420847       33.26362144967415
Au           7.94348748057040       10.30850900748196       34.35812682668934
Au           7.03394768054164        8.67352298237266       31.98415337327532
Au           4.14225377388582        5.92412831232227       31.00320217339552
Au           5.20827849148845        7.12184553025559       33.51475905683603
Au           7.15360023541637        5.78162801601051       31.92768577911677
Au          10.06845280503001        8.35770358591726       32.22691389301456
Au           7.89465222041861        7.24103806059131       34.28012036127549
Au           9.50147865594026        4.81784770742419       33.41095652264868
P            0.42995055038033        9.58227994993242       34.99085069565083
P           -1.20872280149257       11.58861908822806       33.43539156848823
P            9.04338113120109        7.15207510321843       36.36285587574918
P           11.11754584472452        5.42100874283835       34.98997259731516
C           -1.18096891591221        9.87201346760428       34.14065369034799
H           -1.25937734321545        9.14701960793424       33.33086771507389
H           -2.02873573043716        9.71891730849441       34.81093000043336
C           10.83875810324931        6.95906913138672       35.99301854102291
H           11.15151617950975        7.82676061724732       35.41244257612239
H           11.43875076254648        6.93223441549029       36.90464160359750
C           -1.89110345848062       12.56472584700781       34.79817945955211
C           -1.14076583161466       13.61402218017922       35.33433309444592
H           -0.16660554922030       13.84178239506548       34.91448155500782
C           -1.62604406952879       14.35829528257574       36.39769319804666
H           -1.03101531518177       15.16829119704242       36.80292835623049
C           -2.86987031736519       14.06508977218488       36.93907617554924
H           -3.25095005691429       14.64727679235464       37.76956214316203
C           -3.62858478377010       13.02727427647781       36.41222442910129
H           -4.60226732463035       12.79962073231785       36.82972653357421
C           -3.14692107097632       12.28100116406720       35.34959969308388
H           -3.74812843278174       11.47727405127317       34.93856061992429
C           -2.53791588681158       11.52605635639941       32.19513103382476
C           -2.67709271342025       10.44005464475143       31.32686264437662
H           -2.03411014575629        9.57211522383875       31.42853654212977
C           -3.63971475120160       10.45062629634254       30.33058081318905
H           -3.74156503329002        9.59189002165646       29.67692747990587
C           -4.47051908092587       11.55216221857580       30.17361155175244
H           -5.22950358730061       11.55457228873208       29.40048497669430
C           -4.32798843604568       12.64745186985513       31.01486327818857
H           -4.96903604882227       13.51282261893888       30.89530577679030
C           -3.36746621814128       12.63877388707901       32.01420919492267
H           -3.26600715136354       13.49665922452426       32.66916765366785
C            0.24723846365595        7.94420371005668       35.75907500618005
C           -0.37367500806550        6.89037363733868       35.07842579173836
H           -0.86583627633031        7.07115209170313       34.13105603643350
C           -0.38888802023232        5.61408023923322       35.62130163457843
H           -0.87993636370719        4.81144754184353       35.08330339721014
C            0.21876503238599        5.36722953815384       36.84455120048167
H            0.20870919913332        4.36876924814000       37.26513486433018
C            0.83466474545607        6.40548401159081       37.52987427067501
H            1.30629610921351        6.22168652811022       38.48807707893823
C            0.85528796351592        7.68113614949640       36.98970786885928
H            1.33845610617731        8.48586704817724       37.53026987149887
C            1.50143122183351       11.63698704325848       36.52440046390525
H            2.29954854084060       11.64388901741823       35.78958818943453
C            0.44395172342750       10.73517976167830       36.38859091041661
C           -0.57229371142689       10.72953085824253       37.35130567621936
H           -1.39542412606724       10.02923686626147       37.26313731177773
C           -0.53068649422824       11.61445771038674       38.41570377318017
H           -1.32515323501821       11.60523679183038       39.15248351790317
C            0.52692753094559       12.50655213892073       38.54167569430405
H            0.56067443843200       13.19277265636902       39.37942578409073
C            1.54273332437271       12.51387308075879       37.59684469979491
H            2.37788819785656       13.19642465767225       37.69845536534273
C            8.93630282959104        8.64298411371328       37.39261540604819
C            9.67175160284666        9.78866961943925       37.06498509046838
H           10.41366363811182        9.75151465184706       36.27630204574707
C            9.47944463042367       10.97052944691049       37.76437009998940
H           10.06236892570902       11.84634661835194       37.50435331705266
C            8.54756073767200       11.03015441408222       38.79194206357022
H            8.39749404078509       11.95518722212209       39.33571180282090
C            7.81165928740879        9.90080122708446       39.12306138737362
H            7.08400020669884        9.94117006568707       39.92511011300214
C            7.99754747549103        8.71774825048266       38.42529882512790
H            7.41602521082701        7.84157617595980       38.68763827407631
C            8.63354047737952        5.76890866720557       37.45668946482616
C            9.29580222804500        5.57775535172178       38.67502011555205
H           10.06787077557650        6.27317398635867       38.98487464353926
C            8.96845677645019        4.50363946426120       39.48581261660238
H            9.48949528467472        4.36237325265361       40.42531841309586
C            7.97491784539622        3.61299889757418       39.09887299655676
H            7.71772966505734        2.77659817853639       39.73774446309169
C            7.30814631800001        3.79868665723246       37.89637003997391
H            6.52221150767406        3.11577310396926       37.59626666167167
C            7.63551333252658        4.86812224120588       37.07805753864210
H            7.10969079144581        5.01154153604370       36.14003614596816
C           11.33156347317388        4.14892631493485       36.25852088435303
C           10.46135853086411        3.05637787574776       36.28559692830206
H            9.68204640168132        2.97663099518808       35.53484883311649
C           10.58138254279145        2.08173453415443       37.26322542471097
H            9.89742526524667        1.24113885083850       37.27105322640062
C           11.57496291041337        2.18460491025238       38.22676456671749
H           11.67102084053200        1.42209953106226       38.99045364724169
C           12.44938191151050        3.26410613598917       38.20913097665223
H           13.22872075969491        3.34443006467712       38.95769453959576
C           12.33223110253419        4.24083352217453       37.23421627695461
H           13.02255315835098        5.07725945518674       37.22319777181765
C           12.77418045761143        5.68518296322189       34.28659150269063
C           13.12415966165329        6.91207943762381       33.71500246394006
H           12.43128570447661        7.74630187278185       33.74503902609535
C           14.35762205137439        7.08534241877304       33.10933905641144
H           14.61260474414354        8.04924987111572       32.68319031535201
C           15.25983349406106        6.03144757541105       33.05319188876975
H           16.22809329825076        6.16884345719927       32.58684023437601
C           14.91693122672785        4.80086780747291       33.59700712035237
H           15.61429131866634        3.97272513214532       33.55224788366049
C           13.68268851918395        4.62500284053838       34.20451978149942
H           13.42472887336465        3.66045878991022       34.62648205201060
C            0.80059778575127       10.68005889540306       29.84486656543995
C            0.59947880042521       11.85633284870628       29.56781701839927
C            1.29329410852289       13.87483199863764       28.40282973175481
H            2.15657460819635       13.33402332271624       28.03326918712671
C            0.38252965893390       13.21485234058348       29.23323804493963
C           -0.71934036251901       13.91306078458912       29.73893073277882
H           -1.42943906365048       13.40150451306834       30.37774530429255
C           -0.90233982028448       15.24626310834840       29.41187112885213
H           -1.75612187992895       15.78306188929433       29.80863184105922
C           -0.00303722306714       15.89175061820581       28.57326179089616
H           -0.15558020312804       16.93209342082841       28.31254477074650
C            1.09395587712368       15.20284508389213       28.06907436276135
H            1.79324017593396       15.70137469986500       27.40801073597575
C            2.32457347833608       13.68881381943883       32.09121797923184
C            2.77050001032348       14.81236626634011       31.91226059671542
C            3.73377769333023       16.91244415807669       32.72660045691524
H            3.68167060386590       16.54047244134139       33.74306252690649
C            3.29959493834942       16.10197216161642       31.66980069997829
C            3.37271815887284       16.58701330781994       30.35658029839789
H            3.03791679949111       15.95933047442100       29.53999595676855
C            3.85473221169417       17.86059928133563       30.11222687008328
H            3.90144612414205       18.23178638391747       29.09488434458468
C            4.27008299699273       18.66445974464838       31.16722131058443
H            4.63088692003289       19.66782497372113       30.97454235042107
C            4.21437971237149       18.18443867366720       32.47111266624876
H            4.54119981186164       18.81100551664954       33.29281501964587
C            6.21959898294653       10.53461779064559       35.37678287374894
C            5.55782385637608       10.65860414482373       36.40004288080018
C            4.83564627935677       10.77942812382910       37.60919555075208
C            3.89872106662678        9.80157756944448       37.96677444491309
H            3.70304054130440        8.98106727569715       37.28592149519656
C            3.22828575722981        9.89330137304902       39.17439631816240
H            2.51469884048862        9.12707546174761       39.45506717577040
C            3.46834913631464       10.96224996993451       40.02897856442948
H            2.94076344653558       11.02955583370743       40.97283433290631
C            4.38405270224594       11.94482582074115       39.67237014938706
H            4.56917632463392       12.78061853094300       40.33696871301060
C            5.06871317757623       11.85718878471588       38.47216424154175
H            5.79370467570707       12.61341984451384       38.19542791880750
C            4.75951281578841        3.84406972946254       31.49544952098230
C            4.70001911273289        3.29457887081204       32.58706937974769
C            4.63149093183497        2.58076091292766       33.80405569892353
C            5.81115514476405        2.25107914156192       34.48486352669756
H            6.76476881097136        2.58217001704472       34.08961153675783
C            5.75378247725895        1.49556175671462       35.64333839906600
H            6.67153804576886        1.21144524761870       36.14581987448513
C            4.52660737065278        1.08427011168209       36.15039781319261
H            4.48619655779642        0.49070143731659       37.05592729445181
C            3.35120545665243        1.43035771646859       35.49337878960971
H            2.39505891651001        1.10791785425837       35.88904435509657
C            3.39766982644733        2.16820666213519       34.32244769763960
H            2.48516152257336        2.42937225437355       33.79865976946598
C            0.80927975234202        7.06908453097541       31.95136430032990
C           -0.30671942442404        6.89590625783542       31.44234822839649
C           -1.59029693119731        6.50858651654034       30.97883780839509
C           -2.30445231391425        5.52687236790956       31.67588039154698
H           -1.86742370102579        5.07390794767175       32.55806502833703
C           -3.55484613726683        5.13432932268655       31.23006844976819
H           -4.10170556070475        4.37121215038838       31.77123438224877
C           -4.10858775683164        5.71368538394884       30.09540694173741
H           -5.08824931357014        5.40445517140407       29.75145966251559
C           -3.40380531128715        6.68824881354016       29.40019394375983
H           -3.83193508812531        7.13948676037003       28.51254507218261
C           -2.15031145981924        7.08385714634088       29.83395919232532
H           -1.58896132493434        7.83107849167925       29.28403327968473
C            3.56021103165382        6.37320488793325       34.80936622386570
C            3.83852739437535        5.98595301209784       35.93577352959930
C            3.94163533833523        3.86265627234895       38.97226184837646
H            3.59210068407988        2.89111016451974       39.30175810816751
C            4.64613974902554        4.68128107250973       39.84691181837256
H            4.84491543581359        4.34939951155113       40.85888796137814
C            5.09715920141056        5.92507474301317       39.42239844171800
H            5.65029184996773        6.56276959429652       40.10264709200995
C            4.84395390937325        6.35451306008633       38.13114844508452
H            5.20495134971679        7.31866904649463       37.79232040201243
C            4.12335618822249        5.54057535919965       37.24811583454623
C            3.67834915439267        4.28488845426645       37.68013566678410
H            3.12294866176739        3.65300499630740       36.99685498322192
C            8.32377820920893        3.84556810563155       32.04796884059392
C            8.09699459600395        2.79891941730827       31.45681453537686
C            7.81661058713011        1.59370975774380       30.77322264508281
C            8.17698110301322        1.44365558909375       29.42720306943720
H            8.67124224880478        2.26019110465056       28.91666786790829
C            7.89926474938799        0.26448455822644       28.75919848274779
H            8.17388441457913        0.16006457330943       27.71567054652462
C            7.27625846056262       -0.78303458374429       29.42524009166114
H            7.06938061161373       -1.70996650539661       28.90366562575304
C            6.91964401987698       -0.64408521638524       30.76164600358570
H            6.43570944746116       -1.46339947746491       31.28030247771109
C            7.17832213064712        0.53582561282423       31.43503863040855
H            6.89688638747906        0.64789379203549       32.47561323493643
C           10.54941611201398        6.69362924149381       31.18254549627117
C           11.01959288963565        5.65631155726461       30.73740429433445
C           11.53604306865023        4.46713766081312       30.16624631622871
C           12.69867344639078        3.86789941230178       30.66007021880651
H           13.21037752921459        4.31056982978092       31.50618954700793
C           13.19185173346629        2.72000840455903       30.06310646580453
H           14.09373560082081        2.25973946869976       30.44955840636834
C           12.54124718025624        2.16302904347233       28.96960337440279
H           12.93593744990741        1.26953085890750       28.50102890494265
C           11.38477190384577        2.75354724302819       28.47522574149984
H           10.87870346292287        2.32498310376866       27.61765245804306
C           10.87764723472094        3.89403636110082       29.07229884515069
H            9.97690246626289        4.36260839389680       28.69078227581523
C            9.77457521375134       10.08544565048672       33.53730240937740
C           10.95463451361992       10.41459896559146       33.37608089767252
C           12.28582271935697       10.86764922207169       33.21691411133995
C           13.04882657245053       10.44939672236557       32.12029948040993
H           12.61563914838464        9.76284317755433       31.40102124617788
C           14.33842914011407       10.92152708907394       31.95251509880602
H           14.92050816547644       10.59807308316720       31.09728100097029
C           14.88089269126330       11.81356360232319       32.86934691468029
H           15.88938439119413       12.18477769044971       32.73197957495100
C           14.12955144648967       12.22934644109262       33.96122570333468
H           14.55245557720337       12.92459852336729       34.67677148851304
C           12.83941707122542       11.76065890002247       34.14187376316764
H           12.24796326655171       12.08582151202443       34.98959409547200
C            4.97745508312496       13.87859108549575       28.66032348622338
C            4.89324790522326       13.85846669385800       27.44792773063654
C            4.83951550184652       13.74363967007205       26.02700740444851
C            6.02821779923009       13.75290161289617       25.27989805984198
H            6.97028340534308       13.92537464445274       25.78508977520210
C            5.99727943265624       13.55571155686136       23.91046678580438
H            6.92353846572228       13.55773939089588       23.34635513801608
C            4.78710773959479       13.35807157862412       23.25746676231589
H            4.76545434542913       13.20721926043105       22.18471985441146
C            3.60203602981590       13.36281827547207       23.98213820372296
H            2.65449422874546       13.22775493883106       23.47292233303561
C            3.62247835852555       13.55392398048228       25.35563802948206
H            2.69528708013846       13.56684948742583       25.91388236278093
