493
 energy: -731.533212045004 gnorm: 0.000729738906 xtb: 6.5.1 (579679a)
Au          -2.88283174177979        3.54658451534199        7.89951293751446
Au          -1.92780784981833        6.01454521246412        6.29152470251487
Au          -4.85688216437495        5.50471736092405        7.05243804792295
Au          -3.37853891550925        3.97458485317322        4.67824637998553
Au          -6.24592509823705        3.32609699938646        5.03285565934131
Au          -4.13514154601973        8.16790832661685        5.64360832367774
Au          -4.46335017079378        4.81390331030616        9.79619022476619
Au          -7.22556419663501        0.34260936308100        5.71110082181025
Au          -0.47082238102568        4.60982580294604        4.41612435004177
Au          -2.45371413737970        6.50852450923290        3.63283888588926
Au          -0.11031047309603        4.05392148891351        7.72311600787157
Au          -3.02021952098578        7.61688613288717        8.33299269409940
Au          -1.02183079830340        6.12409242657064        9.61464732253728
Au          -6.70210696079884        7.53616188161067        6.52411411654786
Au          -5.50165406134762        6.19946869455080        4.31429699139431
Au          -2.49270105519889        2.70399490209559       11.01978461941944
Au          -1.32585236481019        2.21401264230049        5.90846837023637
Au          -5.63269224055746        2.90874501338437        8.10480443586727
Au          -6.48483212441134        7.09162212846683        9.49881257524717
Au          -5.64927977913972       -0.86935378428372        3.78949260477941
Au          -7.56179780637846        0.85292812248104        2.98168599845644
Au          -8.99756252599872        2.67884495203193        5.25877473817829
Au          -4.29142405053749        1.35989636853835        5.68226734839476
Au          -7.90453580076921        4.63533146547314        6.93007206164373
Au          -1.02108431291327        1.61442375088632        8.70744483834422
Au          -4.84713274025524       -1.37025142013485        6.65275664827118
Au          -8.29161386278806        5.11092596752336        4.14993684076500
Au          -0.31194109135273        7.85223526001853        7.56504847908240
Au           1.60543133394014        6.32143144037567        5.82482839312334
Au          -2.20720022067163       -0.54517018824584        6.21342144256874
Au          -0.76488666468746        8.86575125282001        4.81504760261927
Au          -7.30997709256631        3.67594239201836        1.73723725267403
Au          -3.74996163565578        0.50087041823087        8.36493678476930
Au           0.54481224149196        1.33053672153231        4.04551474195096
Au          -4.75598956060649        2.09278209109235        3.01100685368364
Au          -0.73967965891315       -2.05935110347145        8.27259756582674
Au          -2.72560515606703        7.08439144436955       11.98318571510808
Au          -7.65972090666124       -2.73514590230144        5.61540588704682
Au          -3.12251196517643        4.77495837347541        1.20583408566851
Au          -2.94206548254252       -3.30719798099632        5.33223886534734
Au           0.45168066629448        8.65265237440335       10.40835839602156
Au          -9.79053789695854       -0.77384172583209        4.43418075230816
Au          -9.11857740925686        7.88574872477198        4.82114580856835
S           -4.78505189045882        5.92241824812617       11.94947227304329
S           -3.88383072729110        0.82292596417745       10.80835242286735
S           -1.14353472525675        4.56732398548179       11.50983155382079
S           -0.70147981837643        8.24689111286630       12.43092692161534
S            1.68172239489094        9.10268445708864        8.43275626252977
S           -4.68809758673658        8.58763146349420        9.87381373438564
S           -8.41358272508295        5.85884621303548        8.97331833882136
S           -7.61947344260296        1.46161378654513        7.89862315427424
S          -10.91658803038765        1.20249399070853        5.05921763410386
S           -6.46015742722851       -2.96776935078394        7.63473267126465
S           -8.94435559551527       -2.83117826325076        3.62282726118708
S            0.09130644491344       -0.35696436519578        9.66015506379404
S            2.25359615783285        4.62376623981997        7.30302661318328
S            1.28844270763699        7.93202093491599        4.12202448792062
S           -2.60923956533007       10.08005029059830        5.61826277554774
S            1.18260997777460        3.35285845126351        3.09445333015799
S           -0.16254929487448       -0.78816411523738        4.74426770748085
S           -4.12539364417024       -2.76215307137981        3.39726195986490
S           -1.39973951673640       -3.94449075521460        7.01136794515078
S           -3.52733053656081        2.42255175909786        0.90022632407100
S           -2.44042521029099        7.08201057757940        1.24893845804161
S           -5.73912801093231        5.45347903651717        1.95385215061309
S           -8.62610934103918        1.85883625852290        1.02674593676274
S           -9.58441631766497        6.76126342345109        2.80313417606708
S           -8.61851854595190        9.06780751526144        6.80534588963038
C           -4.53700422405758        4.60709386242446       13.16979459666081
H           -3.57323442651249        4.12517906484209       12.97906688557317
C           -4.51884260757591        5.20857745033915       14.56958764388074
H           -5.45781507100316        5.74009602643766       14.75264339285530
H           -3.70245214251994        5.93245199278770       14.64235566519107
C           -4.32483761095428        4.10085018158300       15.60899005013033
H           -3.34710024475024        3.62989406440660       15.45712555953514
H           -4.33618458384510        4.53541732639084       16.61248618640840
C           -5.42631243426087        3.04568641350409       15.48821359816699
H           -5.24785422739470        2.24398845552088       16.21066614383549
H           -6.39515075720689        3.49998478459958       15.72176201434541
C           -5.46392493799831        2.46334552501090       14.07456397841247
H           -4.53047606692408        1.92789932251768       13.87089960699366
H           -6.28622790345833        1.74676999609705       13.99063090641194
C           -5.64527596891248        3.57171046615069       13.03644077922623
H           -6.61396381403713        4.05929957781921       13.17489630850123
H           -5.62474081290366        3.14299585005621       12.03041648729582
C           -2.86910129857486       -0.52247595397246       11.47443883922605
H           -1.83164713860026       -0.38640653401759       11.15564840398195
C           -2.93086829828769       -0.47885306086321       12.99778079365301
H           -3.97285755412123       -0.55655647795914       13.32378243918020
H           -2.53798499438151        0.47954604745164       13.34878247853358
C           -2.10643294000290       -1.62545356597365       13.58958516855992
H           -1.05337498967374       -1.49173057296716       13.31938219968554
H           -2.17989024383990       -1.60117828620558       14.68044899512824
C           -2.60361417026732       -2.97449903602740       13.06637749428999
H           -1.98027503097955       -3.77764316199388       13.46970059876714
H           -3.63131453441421       -3.14276240532443       13.40552845539751
C           -2.56015715124515       -3.00893197032575       11.53825281186514
H           -2.95667922578793       -3.96178445875830       11.17648736392116
H           -1.52255738453348       -2.92656094368484       11.19563725738770
C           -3.37816498284843       -1.85888754050612       10.94851113083663
H           -4.43581535569637       -1.97998205178664       11.20189577618764
H           -3.29393007128245       -1.87118599317596        9.85781240631976
C            0.50908069106351        3.90829159575804       11.87611735765388
H            0.94988430822246        3.56042964374683       10.93738336444551
C            1.37557689546756        5.01991817431579       12.46319234544304
H            2.40293757574756        4.64899399883033       12.55133829816418
H            1.38525628370890        5.87441750613989       11.77969936298745
C            0.86755054422854        5.46408131580569       13.83581641804147
H            1.54505154680555        6.21772953568192       14.24682361999196
H           -0.11606903533346        5.92923478714143       13.72135119063767
C            0.76718342483498        4.27693305875345       14.79555372920623
H            0.34971400083681        4.61280700003789       15.74917637738528
H            1.76789070567301        3.87540109961063       14.98939377131881
C           -0.11817848863882        3.17634297535469       14.20729050390707
H           -0.14713394121344        2.31918026913490       14.88589624724599
H           -1.14131638484875        3.54932986045656       14.09190655776116
C            0.41507519924133        2.73312138301515       12.84519902462458
H           -0.23485897763186        1.96150610523744       12.42247161025920
H            1.41495113809010        2.29980097723406       12.96142237045250
C           -1.21585806001757        9.89441176218948       12.95728993771775
H           -1.71787718918329        9.75100553550804       13.91973236651148
C           -2.18221317280608       10.54593058488301       11.97581635562188
H           -1.69301186609199       10.63141156636058       10.99942410637190
H           -3.06437673339673        9.91183084322561       11.84741801217290
C           -2.60168716321587       11.93058068853229       12.47081859763309
H           -3.15411408450050       11.83040595446144       13.41098723092719
H           -3.26974327561420       12.39219887830955       11.73748301537826
C           -1.37548241583991       12.81926609553834       12.68417329612235
H           -0.87749444351474       12.98870106291080       11.72283418667012
H           -1.68732273544419       13.79159312917317       13.07607708094399
C           -0.39436898541218       12.16142995587011       13.65648586254044
H            0.49691616162499       12.78655958195250       13.76230639827952
H           -0.86029905062158       12.07050848251035       14.64340877003047
C            0.01473052153396       10.77355218087846       13.15632994185238
H            0.69334866713718       10.30097198093326       13.87119069491572
H            0.54639147557981       10.86719086513411       12.20280528986751
C            1.33946785316037       10.85076126402463        8.12813107878955
H            1.72170209323300       11.04935531982279        7.12055736646704
C           -0.14000318884104       11.21219538001357        8.17224606882055
H           -0.53922799463532       10.99414769269222        9.16825235362125
H           -0.69572051269780       10.60350816619747        7.45406245571765
C           -0.33358290759811       12.69269855432102        7.84411276241597
H            0.00070620881530       12.88306595741976        6.81827073435615
H           -1.39699231281703       12.94242463595236        7.90121879412502
C            0.45718093489931       13.56921126018818        8.81622184460823
H            0.05474419848168       13.44344057299288        9.82742640951456
H            0.34479914536168       14.62131843297277        8.53929908037947
C            1.93885157233020       13.18816995829372        8.80719720144300
H            2.47931211001692       13.78819603763553        9.54479861344583
H            2.36713979245674       13.40118529765012        7.82157721304627
C            2.11846227463940       11.70176244594250        9.12782025445839
H            3.17799691852505       11.43551087938627        9.08888006285935
H            1.75606075418517       11.49064053765413       10.13951308655680
C           -5.23929509396580       10.15695669914018        9.14847843064392
H           -5.85069968944276        9.94341308569503        8.26616050307847
C           -6.08183316040048       10.88907507636477       10.18935037104264
H           -5.49158094311306       11.01675220292966       11.10225977388922
H           -6.95654829975264       10.28246943437493       10.43881779403646
C           -6.53188835751557       12.25523627074492        9.66417582370696
H           -7.21210346782234       12.11321423165587        8.81740646481561
H           -7.08300630738515       12.78114913427105       10.44890789209801
C           -5.33505711047799       13.09630144324542        9.21803537452173
H           -4.70460867463336       13.32584703917980       10.08423925890892
H           -5.68747092292483       14.04324151473134        8.79887505257483
C           -4.50901934049578       12.34473303617267        8.17400401705290
H           -5.11223401215077       12.17872653409073        7.27447968235388
H           -3.63911329245055       12.94269061603890        7.88643048954998
C           -4.04160651158718       10.99857186317434        8.72872613953816
H           -3.38280047987961       11.16014738199538        9.58535193586253
H           -3.46833281568096       10.46745605925208        7.96423508714419
C           -8.73987926116049        4.60683863060312       10.23946553375925
H           -7.89999295987597        3.90812525432059       10.31350009216958
C           -9.99815448111437        3.86719613962218        9.78654939322663
H          -10.74868283027575        4.60260240714458        9.48045829156305
H           -9.74610329167882        3.26019860520304        8.91109686814878
C          -10.58310729540806        2.96785387079619       10.87864027195883
H          -11.53617874239101        2.55904320620468       10.52980132330633
H           -9.91166882967715        2.12404329351271       11.06411991897883
C          -10.79388636157520        3.74049493448387       12.17979305711433
H          -11.17125650670955        3.06301234275866       12.95116908779811
H          -11.53934811423570        4.52798383106640       12.02709633154836
C           -9.47484270369170        4.36201964220267       12.63786589724760
H           -9.62205633514451        4.90756500283292       13.57406856480539
H           -8.74428030741674        3.56730524029915       12.82178385637869
C           -8.93874346715421        5.32138773098107       11.57260262313727
H           -7.98277234084128        5.74410866414370       11.89662886349633
H           -9.64216320524261        6.14861483439409       11.43633528125542
C           -7.47395838380744        0.16460340121205        9.15490003836682
H           -6.60342781874744       -0.45379088485245        8.91365761048529
C           -8.72630826604035       -0.70238355291969        9.11827032569242
H           -9.60554147286595       -0.08105579452377        9.31636631188077
H           -8.83687155365595       -1.13946389059790        8.12163633259820
C           -8.62317920073135       -1.81603950104211       10.16231705723521
H           -7.77833057154941       -2.46613775588374        9.90697199914585
H           -9.53317660880526       -2.42257688068890       10.14015768575947
C           -8.42600552163141       -1.22211660807948       11.55773210831277
H           -9.31202516798677       -0.64011060665693       11.83474892896987
H           -8.31148629091638       -2.02829040427702       12.28813138040516
C           -7.19224878963010       -0.31969612341540       11.59445469160203
H           -7.09781054852486        0.13855575725630       12.58334246924524
H           -6.29166439617060       -0.91712905861995       11.41739345583635
C           -7.27894064842279        0.77853849014547       10.53335867623766
H           -8.10629062736014        1.45527670982412       10.75922765852865
H           -6.35673700922924        1.36588717459764       10.54328343707167
C          -11.30009151148694        1.00650404099831        6.82063440834677
C          -11.95369081189991       -0.35525845198097        7.06607017159147
H          -12.53016318577495       -0.65550999912367        6.18649809582893
H          -11.17312971706003       -1.10530318768560        7.22087091817666
C          -12.88107425740185       -0.29534594759956        8.28036018354234
C          -14.07030339153003        0.63739565417116        8.00303601509196
C          -13.68394571997204        1.78007493997475        7.05068612701615
H          -14.32094888643748        2.64840593640891        7.23892886560349
H          -13.83820895809556        1.47397211580859        6.01066879393866
C          -12.21712347070676        2.15967581336791        7.24168268605979
H          -12.03800553219843        2.39813660223524        8.29459495677023
H          -11.97666222978379        3.05070406139570        6.65727141402020
C           -5.57260716943088       -4.53584842303807        7.45309117008526
H           -5.01067952609782       -4.52734478558423        6.51215417999802
C           -6.54995935958973       -5.70435289361073        7.43434869323201
H           -7.21972826809274       -5.60171864297548        6.57617731047312
H           -7.16141385650082       -5.68569644016700        8.34188939172325
C           -5.78369302969539       -7.02621852543902        7.33789428950154
H           -6.49177979909944       -7.85972119341988        7.34420636379857
H           -5.23502620363213       -7.05775856627096        6.38990352581134
C           -4.80362513874950       -7.16875319678635        8.50435677635791
H           -4.24051180560318       -8.10046667019241        8.39854698698166
H           -5.36182912583512       -7.21788938043552        9.44541127131211
C           -3.83453403724307       -5.98621889947669        8.54645455697425
H           -3.17924958281790       -6.07383030772245        9.41794186167675
H           -3.20089006562057       -5.99093110641514        7.65285989440478
C           -4.59533864386892       -4.66003102202169        8.61730535327426
H           -5.14666486196721       -4.59051905355919        9.56011815777247
H           -3.88634809985263       -3.82855828336491        8.57941995300614
C          -10.19411642123773       -4.11491295014813        3.92487321432228
C           -9.50328108425182       -5.43460300182833        4.29339614457522
H           -9.21735713464955       -5.96611196372795        3.38190266544228
H           -8.58552884483655       -5.22613657387523        4.85108584614981
C          -10.40747828166755       -6.32129770825943        5.14999449236765
H          -11.34352956964883       -6.51286775894905        4.61601309588641
H           -9.91786112091477       -7.28532606558329        5.31334313591137
C          -10.69718872694470       -5.65937158643668        6.50353393614576
H           -9.87862998038793       -5.87265682825489        7.19787262857284
H          -11.60798980353704       -6.09484806765034        6.92457576542867
C          -10.85885835794286       -4.13744211811603        6.37014192389646
H           -9.91308961571966       -3.64181040395125        6.61688711861304
H          -11.60610874709212       -3.77567601814880        7.08170466924822
C          -11.26739132072719       -3.74651096661136        4.95397187920404
C            1.79203733551110       -0.13430957865342        9.09006748301408
C            2.61585199229975       -1.35752133600931        9.47706975002003
H            2.27996356702798       -2.21096672515046        8.87978965166493
H            2.43745057653378       -1.60263929979115       10.52683113094072
C            4.11376099035243       -1.10367618935271        9.24636126827449
H            4.55858587406704       -0.68160747890317       10.15226180792766
H            4.60597652078660       -2.06119271884661        9.05231020301491
C            4.35960135925398       -0.14458090694757        8.07251958664736
C            3.26221349187164       -0.27994067032542        7.01895034751620
H            3.49928151703411        0.34345338377137        6.15224439781780
H            3.21465100464540       -1.31825760083040        6.67446346891129
C            1.89972020782798        0.14047743588533        7.58686549992841
H            1.11665807883500       -0.40656905888130        7.05542176490463
H            1.73200672301090        1.20699737335967        7.40802876831133
C            2.92473276465809        5.41005213532470        8.79660171877776
H            2.10028892066031        5.83687039360774        9.37526241521905
C            3.60671402522440        4.31215986406088        9.61219605290621
H            2.89465282073847        3.50466331764539        9.80532760415107
H            3.91750908317635        4.72926620885167       10.57641212377464
C            4.82379791916500        3.75627966502339        8.86988186521671
H            4.48711533692795        3.27969409756874        7.94273902068551
H            5.31232230913254        2.99602513283767        9.48582255310618
C            5.81750060210333        4.87102495325186        8.53651781652752
H            6.21464498561524        5.29787897180451        9.46386184401740
H            6.65681216552986        4.45629766751357        7.97059751889672
C            5.13797820449672        5.96973837338779        7.71701433722126
H            4.82110973958465        5.56151321693141        6.75147662785507
H            5.84439748302367        6.78181114810590        7.52311899236601
C            3.91893675900643        6.51719933789658        8.45791468003587
H            3.42375866414888        7.28185426917439        7.85247464486198
C            2.45742694695300        9.19763754993685        4.68910774207792
H            2.30923260943386        9.35602785430349        5.76155372284792
C            3.88120129015175        8.70520865647703        4.45675027169652
H            4.02296708291230        8.47438537764337        3.39631393905539
H            4.04118726203473        7.78582216954680        5.02633655105584
C            4.88603966027519        9.76854984347729        4.90669153029768
H            4.78584243810171        9.92782279570995        5.98584019766480
H            5.90198598100304        9.41397808603817        4.71167972912759
C            4.64509853835955       11.08617684954079        4.16770145016850
H            4.82461693311122       10.94323999560020        3.09683888031247
H            5.34681092711577       11.84350650668399        4.52858472896666
C            3.21056742662830       11.57104496017190        4.38440381417428
H            3.05592543042553       11.80070706337493        5.44463025663021
H            3.03804504789495       12.48868121116139        3.81498417104557
C            2.20615963539215       10.50365929556560        3.94386398705265
H            1.18898580652963       10.84843505907359        4.15053592791548
H            2.28935465488612       10.33374345517346        2.86617799544578
C           -3.03843386071582       11.16312742973397        4.24110188236964
H           -3.92674569270942       11.71377211721043        4.56719362362591
C           -3.35748513315660       10.39363582372563        2.96552069349610
H           -2.50765906506392        9.75531984856615        2.70361338605904
H           -4.21506580828143        9.73970727825233        3.14567641586918
C           -3.65768831485540       11.34159303096248        1.80417218221507
H           -4.57679081763305       11.89966455555841        2.01261253311185
H           -3.81908093782602       10.75482459124615        0.89577080680859
C           -2.50104601123990       12.31774159593625        1.58712857142606
H           -2.75080192998034       13.00970956901346        0.77796306971038
H           -1.60459322150931       11.76191561639424        1.29142326997533
C           -2.21670541835464       13.10225248287275        2.86880949547295
H           -3.08990972716913       13.70850576283888        3.13231045758299
H           -1.37195232239305       13.77886743279732        2.71168922276650
C           -1.89230660127849       12.14512051956218        4.01750193374277
H           -0.98158554355791       11.58404334213732        3.78213166219898
H           -1.70839551038188       12.70761108686510        4.93694657354086
C            2.82496950532248        3.72535549228706        3.75911203337151
H            2.72385577797379        4.06133387435486        4.79439983583515
C            3.41972979718952        4.85085165184492        2.91756249618848
H            2.76793202115614        5.72741467014829        2.96708844765245
H            3.47572899270645        4.53099363303616        1.87261695959274
C            4.81440304447370        5.21414106486580        3.43274207840288
H            5.24348090884465        5.99849918097245        2.80276149371963
H            4.73068305803182        5.60977304563591        4.45093951090988
C            5.73146836194633        3.99021911227005        3.43836735990407
H            5.89055050308539        3.64674987105320        2.41076881321969
H            6.70461674406651        4.26308871695210        3.85668176405040
C            5.11569707297428        2.85994478360247        4.26518568524736
H            5.03061241014483        3.17299000459581        5.31186916198479
H            5.76197505802537        1.97842357879256        4.22955352963589
C            3.72723133606857        2.49795599291831        3.73174210941978
H            3.80161554937161        2.11319270917218        2.71009910391709
H            3.28803257621716        1.71283536174662        4.35453228916955
C           -0.80247560872788       -1.38039019511581        3.16161183500734
H           -1.31856948160775       -2.32241770654344        3.37446800645507
C           -1.78541746610101       -0.40919485723161        2.52015519555920
H           -1.30088028155414        0.56444052531463        2.38444874061052
H           -2.63743447844849       -0.25777513620553        3.18856906559946
C           -2.27177648823066       -0.92462047339903        1.16696778412688
H           -2.86648389488507       -1.83185371505185        1.31644222134791
H           -2.91602212558700       -0.16393630279836        0.71666828867757
C           -1.09543979404320       -1.21836928880592        0.23768616982984
H           -1.46737860867059       -1.63426023305881       -0.70293134582508
C           -0.12818668369942       -2.20626510828221        0.89191685338009
H           -0.63336984200477       -3.16374186678726        1.05848237622145
H            0.72499836719762       -2.38618518434923        0.23172984939005
C            0.37200264426568       -1.65498345704394        2.22891024523135
H            1.05457510949220       -2.36746509153518        2.70064973944577
H            0.92461915451347       -0.72383192143837        2.06361308358633
C           -5.33281443198017       -4.06920062395175        3.08954435617331
H           -6.11692014551278       -4.02086903075693        3.85409181822976
C           -5.94808557956362       -3.79650422341733        1.71995500559653
H           -5.15123987489447       -3.73600106293170        0.97238949600766
H           -6.45917982901373       -2.82956495738218        1.74592770615537
C           -6.94826578093829       -4.88958993548246        1.34071546617036
H           -7.80300621261559       -4.84032354672754        2.02294528727764
H           -7.31900033088349       -4.70543178903718        0.32844148390662
C           -6.30484101077721       -6.27523457012206        1.41241690790997
H           -5.51807612627641       -6.35310959873119        0.65447707797826
H           -7.05698264980952       -7.03942563330074        1.19605897883527
C           -5.70320716412730       -6.52526194790081        2.79672434862562
H           -5.22060207738686       -7.50640653504776        2.82003028227035
H           -6.49815585406581       -6.52346165486259        3.55080168118444
C           -4.67672285557689       -5.44273344647926        3.14009723806491
H           -4.27744983016412       -5.61636174784997        4.14406685719364
H           -3.84033928655626       -5.47791743805456        2.43514107386876
C            0.08895715117527       -4.11250734363644        5.98893507685007
C            1.27483250567414       -4.46419961551760        6.88006751311070
H            1.42382294537108       -3.66661659397960        7.61289880641306
H            1.06216829062561       -5.38679259593783        7.42897559884038
C            2.54064197150047       -4.62853741296713        6.03611251805964
H            3.37871526626765       -4.89807475252205        6.68496173572433
H            2.78142248011213       -3.67454704757658        5.55393206936777
C            2.33920281637145       -5.70804302759874        4.97115580104184
H            2.18108451325427       -6.67643662166064        5.45758511744261
H            3.23680644176268       -5.78542874521677        4.35101876756618
C            1.13410914548451       -5.37492601114011        4.08997638200172
H            0.97279035018858       -6.17546076364912        3.36258959905102
H            1.33171741225462       -4.45155777297127        3.53461572494660
C           -0.12788900536717       -5.19552093310572        4.93731685747614
H           -0.96372639751526       -4.91222437844178        4.29131335255394
H           -0.39009327063627       -6.13716621724214        5.42975487379998
C           -4.83060769342342        2.39532454763711       -0.34995002143576
H           -5.67147950285167        3.00684512604843       -0.00033589249174
C           -5.31721803130122        0.96474485823109       -0.55111046756394
H           -4.48002815915167        0.33618933288678       -0.87010745814405
H           -5.69065276277636        0.57037714297961        0.39844258727766
C           -6.43084700793446        0.92376754605169       -1.59995989061214
H           -7.29991884244738        1.47629974737517       -1.22540772986533
H           -6.73995528948877       -0.11296290242523       -1.76151874479490
C           -5.95333562112530        1.53341426077517       -2.91933777504608
H           -6.77835645428819        1.54531969079959       -3.63755290780224
H           -5.15198125777888        0.91513959570420       -3.33822927337122
C           -5.43805979917206        2.95876615734296       -2.70744627947201
H           -6.26057851282318        3.60096910937674       -2.37287151509762
H           -5.06163271918208        3.36051012901318       -3.65252622083041
C           -4.32145884132595        2.98321497623304       -1.66009786541347
H           -3.45825940967707        2.40891564618511       -2.01037322376679
H           -3.99400488214003        4.01318459320202       -1.49201960022757
C           -0.64053518695759        7.07153438912529        0.99988421594537
H           -0.15613859689918        6.68377419284656        1.90177000165641
C           -0.18611508891423        8.51175672961348        0.78183388174702
H           -0.69210534086697        8.92702271941918       -0.09505269920671
H           -0.46798682285735        9.11648867544636        1.64913072793675
C            1.33276054562526        8.55579722484301        0.59530676456790
H            1.81358904880793        8.20924141593218        1.51772974740135
H            1.65112671694563        9.58705847544461        0.41630490195007
C            1.76389950789143        7.66783888016594       -0.57321052419176
H            2.85475037608058        7.67563977386481       -0.65582431071108
H            1.35286505256771        8.06662943466428       -1.50687609329906
C            1.27483434351225        6.23204450552059       -0.37232611051269
H            1.54989515495811        5.62247684094319       -1.23769419568846
H            1.75781884063081        5.79890929956128        0.51061452390775
C           -0.24377334154346        6.19697603675453       -0.18312961946930
H           -0.56671168090074        5.16914469891049        0.00342910881144
H           -0.74785342884615        6.54877443908451       -1.08845857996576
C           -6.57671046419051        6.80211667035182        1.09164010348729
H           -7.61880719613205        6.79890848083135        1.42384213085415
C           -5.93181620609915        8.13748674562120        1.44682556669467
H           -4.84292924802570        8.03095170934806        1.43208376777297
H           -6.22582772664188        8.40805046762215        2.46612896147438
C           -6.35302463268224        9.23796864816484        0.45779876833058
H           -5.55688542983010        9.39540805703078       -0.27669568389106
H           -6.49739622403479       10.17822732903528        0.99715553163576
C           -7.64109712633201        8.86466596592405       -0.27701648607539
H           -8.44344375274743        8.70651436076661        0.45176432560621
H           -7.94406561648899        9.68971219991352       -0.92760606223540
C           -7.44185214014515        7.59787694955741       -1.12080425007854
H           -6.99627392623654        7.86274362604914       -2.08392601922994
H           -8.41877207852530        7.14798927428841       -1.32050126160348
C           -6.53613959894979        6.57377202546224       -0.41372984636575
H           -5.50339998531308        6.66474767062360       -0.76439181160091
H           -6.87433189397580        5.55990564916895       -0.64335672591004
C          -10.35355986571616        2.13372053699645        1.49726627681451
H          -10.40534818997335        2.51318742832727        2.52246647351092
C          -10.98180407267813        3.14431019572434        0.54204493474243
H          -10.85012045286170        2.79731093460185       -0.48753431624597
H          -10.46842678444991        4.10510601898925        0.63922288572528
C          -12.47294408058291        3.31711530805885        0.85023373871949
C          -13.21080272678409        1.97819424203632        0.80624212474607
H          -14.25779828630367        2.12949782391833        1.08444129671998
H          -13.18721176864662        1.57704405523991       -0.21252104345652
C          -12.56014814944773        0.97882893982331        1.76360772642458
H          -13.07259391967927        0.01461871967423        1.70209992852026
H          -12.64091498852320        1.33906135972403        2.79596523354021
C          -11.08410684250161        0.79831210791081        1.40936526149891
H          -10.62363683873333        0.08729236319655        2.10138818561263
H          -10.98161454498024        0.39100942051578        0.39876593303421
C          -11.32942735534934        6.29737337791822        2.93219243381344
H          -11.52823972494526        5.77145735593623        1.99365760624280
C          -12.22992230509178        7.54128013030156        2.98412745121456
H          -13.11164375166575        7.36757871893484        2.35809151325955
H          -11.69553008866747        8.39892805903599        2.56927590556132
C          -12.68013986546144        7.84905838755947        4.41032369562355
H          -11.79493484508277        7.99357631666703        5.04097324602336
H          -13.24308806947055        8.78610859453399        4.42580309367811
C          -13.54192970020972        6.71319640106281        4.97889510776467
H          -14.59239174106454        6.88528110076640        4.72670084434056
H          -13.45954881829993        6.71671418665510        6.06983241026253
C          -13.10926350223496        5.34499630076782        4.43093797616219
H          -13.67904347622647        5.10113554873923        3.52857197128185
H          -13.31581504839568        4.56683313693076        5.17089127811250
C          -11.61772294570429        5.35193787503716        4.09954197324571
H          -11.05763401959492        5.66676914509216        4.98384843472130
H          -11.28286270312060        4.34363442243145        3.84136417549090
C           -8.14820836131380       10.68790922739226        6.16303588827948
H           -7.70851228291342       11.22349674413074        7.01167194538120
C           -7.13155261595402       10.64274634807256        5.02797519761046
H           -7.52880812957233       10.03815704906249        4.20540986700247
H           -6.21492893579136       10.15899407785800        5.37794775006134
C           -6.80743929393273       12.05053981350100        4.52688111623887
H           -6.31184254184102       12.61552953138824        5.32374364022102
H           -6.11528136539486       11.98295556674824        3.68263793696006
C           -8.07717695513191       12.78223458630716        4.09015705791546
H           -7.82463808204686       13.79909076196752        3.77635447505482
H           -8.51987091311271       12.26450428253023        3.23245212554050
C           -9.08720768815993       12.82944423185880        5.23752201298977
H           -8.67421364756608       13.41120563291267        6.06860324488011
H          -10.00444211484617       13.32307843245703        4.90425320039681
C           -9.41599283377313       11.41384386778809        5.71679081812227
H          -10.12317294691545       11.45371489607651        6.54925604636637
H           -9.88543066060572       10.84687814572531        4.90600887953332
H            5.33349123159392       -0.35636104656533        7.62288586676056
H            4.38093121656301        0.88803790437101        8.43480544845481
H          -10.36746551809553        1.07296458550830        7.38892151649205
H          -10.68322079683424       -4.22638400983011        2.95189149439907
H          -12.31523398354448        0.06118895124531        9.14743788365474
H          -13.24519168535807       -1.29945527640856        8.51427278415946
H          -14.42751786190647        1.05117337566116        8.95077077983254
H          -14.89200709431927        0.06590192378987        7.56135524002609
H          -12.19867118467890       -4.25949675756576        4.69080059216332
H          -11.46701840059058       -2.67354617875032        4.90812029457768
H            2.16307457146529        0.73388423510400        9.64443911595382
H            4.23672522468483        6.99203199788131        9.39298137370387
H            0.28306517493965       -3.15486065231774        5.49103153411129
H           -0.56708252746939       -0.28654442308640        0.00888966557950
H          -12.91420068749264        4.01005147638340        0.12830740927884
H          -12.58909527786014        3.75295622713599        1.84734360027603
