174
 energy: -281.965754859315 gnorm: 0.000659202951 xtb: 6.5.1 (579679a)
Au          10.21144538672441       18.18028679970102        5.27999994683005
Cl          10.01027265496262       20.02404895913146        3.74059892068928
P           10.22059402746522       16.19757177177319        6.47798216278235
O            9.48131309728626       13.66103873691959        7.43097607999974
O            9.92855102563344       16.08436345205865        3.48838294018433
C           11.82301104014142       15.70382477274757        7.16694277357515
C            9.26176925036637       13.64344842823272        6.09845055131472
C            9.63176812198046       14.83498957650586        5.45228715730560
C            7.71072821727821       16.62220453821871        7.50787035243828
H            7.42653606602178       16.65326547564674        6.46170002193738
C            9.51435546940776       14.92454764601749        4.05894676467923
C           12.49609968702435       16.59214689588595        8.01330896376561
H           12.03824816407653       17.54060468157130        8.27465239958679
C           12.44820696211787       14.50720599624088        6.81103730437439
H           11.94941067331618       13.81395823107381        6.14457827431852
C            8.73944882733982       12.57402341971599        5.37999146866841
H            8.44729679299041       11.65778968317045        5.87420095213767
C           13.74634182438304       16.27061163860292        8.51640684596048
H           14.25476948374583       16.96128760891293        9.17893939508473
C            9.03905879142772       16.34998049065043        7.85042337596747
C           13.70375934120001       14.19493845136946        7.30962637076252
H           14.17528405631144       13.26121210111746        7.02630997873295
C            8.99745976441017       13.85125768180469        3.33647059522492
H            8.90053328602900       13.90424718554675        2.26092679449739
C            8.61009002006579       12.69752920898805        4.00436215254558
H            8.20609204045319       11.86946552651621        3.43363409755763
C            6.75397428640762       16.81975836572461        8.49048045378300
H            5.72782387664660       17.02566193008921        8.20759583267733
C            9.90951317166693       16.25163368399591        2.07715692038032
H           10.33871074229086       17.23535379657913        1.88413754018247
H            8.88667552687791       16.21754828110207        1.68821124084721
H           10.51594080392148       15.48510647300212        1.58491537648975
C           14.35321767809182       15.07172131988505        8.16646759175474
H           15.33331017471902       14.82586466018772        8.55780807453723
C            9.12929122510797       12.55103894471423        8.24664013083078
H            9.38441356567718       12.83362958460202        9.26875961978275
H            9.69723118855804       11.66005977928122        7.96042718194158
H            8.05665872456794       12.34217744600791        8.18159549188672
C            9.39124481998181       16.28792869758553        9.19722031157519
H           10.41329104099873       16.06929322815497        9.48301588828485
C            7.11480719073535       16.75475464814687        9.83053840369674
H            6.36765488932931       16.90217759936166       10.60161447808001
C            8.43168618012829       16.48948538276523       10.17904404592321
H            8.71609292167483       16.43472679845584       11.22350209269060
Au           8.16774673263399       19.82660308718422        6.90322416639909
Au           9.81720824923818       21.86881675846668        5.28023003651310
Au          11.85981311741083       20.22087809685517        6.90714563021829
P            9.80358609794932       23.85129286420439        6.47801756087988
C            8.20131200729065       24.34517054098258        7.16714959432709
C            7.52822455915032       23.45680869318351        8.01344464242966
H            7.98616807662799       22.50843910435336        8.27489557448274
C            6.27797629695379       23.77828392564643        8.51651855988970
H            5.76958562653277       23.08759548806819        9.17906629135635
C            5.67112440744762       24.97720117919573        8.16663562960882
C            6.32057049984835       25.85400288986564        7.30980205863334
C            7.57612161033503       25.54176082147042        6.81121859011127
H            8.07490997267781       26.23496707855529        6.14470974718800
H            5.84907180680634       26.78775168566617        7.02653381338219
H            4.69107098446361       25.22307806122480        8.55804558624589
C           10.39254648632238       25.21379183166835        5.45229612589596
C           10.76260471448062       26.40531888585831        6.09846281098906
O           10.54305980104200       26.38775001187970        7.43098718309203
C           10.89513671822891       27.49773637310747        8.24664714124438
H           10.64001088333536       27.21515491609955        9.26876844217076
H           10.32723009643781       28.38873953413245        7.96044230135889
H           11.96777691701148       27.70655627327448        8.18159621514529
C           11.28493353017809       27.47473829414014        5.37999857878510
H           11.57710083525036       28.39097058694350        5.87420411628762
C           11.41427211325584       27.35124049922526        4.00436925856532
C           11.02687632823048       26.19751983282796        3.33647657969678
C           10.50996409669640       25.12423391234955        4.05895182302269
O           10.09573293821984       23.96443889773606        3.48837560499677
C           10.11481381202545       23.79714996106792        2.07715291508504
H            9.68560468618130       22.81343303540007        1.88414064078138
H           11.13766321242801       23.83121036665018        1.68823732057840
H            9.50841511421995       24.56368090657145        1.58487997319281
H           11.12379705483037       26.14453571828063        2.26093228929459
H           11.81828025953607       28.17929978845616        3.43363998658778
C           10.98522632223728       23.69863036621030        7.85033929873615
C           12.31357786272885       23.42649906109459        7.50775510706226
H           12.59777813484381       23.39552563819781        6.46158508880525
C           13.27037501843776       23.22903115627349        8.49035005505949
H           14.29653407671512       23.02318072410122        8.20745169340659
C           12.90959086136385       23.29406673512020        9.83041912626546
H           13.65676716889443       23.14666601255746       10.60148076704240
C           11.59271477953344       23.55930815152404       10.17895565095478
C           10.63310764407593       23.76076073640784        9.19715665381038
H            9.61108241449593       23.97943794226700        9.48299261660065
H           11.30834768740391       23.61410797295440       11.22342376979898
Cl          10.01151897961553       20.02472568229074        8.44180757319440
P            6.18529725352151       19.81591404877176        5.70597587555669
C            5.69153176066761       18.21353113475950        5.01697938181913
C            6.57981254922456       17.54045546492664        4.17057745244455
H            7.52811040073864       17.99843860638419        3.90896760324934
C            6.25832761106403       16.29019652624849        3.66752811030608
H            6.94899020656768       15.78180378516519        3.00495371904592
C            5.05945205337281       15.68331784553089        4.01749684916012
C            4.18268340718093       16.33277322475037        4.87435693537858
C            4.49494500844376       17.58832734244374        5.37293585663347
H            3.80172702925252       18.08712311503473        6.03942560403032
H            3.24896106610256       15.86125401135094        5.15768353363308
H            4.81358502442106       14.70324004579052        3.62613592194894
C            4.82277567281906       20.40480219413385        6.73169498932403
C            3.63124486878102       20.77481030067004        6.08551853059144
O            3.64884248378500       20.55523866994398        4.75299622640396
C            2.53885744911382       20.90725581404181        3.93731019705037
H            2.82145773076609       20.65210302782790        2.91520068464412
H            1.64786855893384       20.33933362408049        4.22352683043834
H            2.33001061678136       21.97989271427167        4.00232491202892
C            2.56182095620662       21.29713870119888        6.80396901624398
H            1.64558800364316       21.58928485382330        6.30975487845830
C            2.68532550632265       21.42650855987563        8.17959766424027
C            3.83905105568316       21.03914305450544        8.84749903705357
C            4.91234207525249       20.52223629944264        8.12503365721217
O            6.07215463389584       20.10804134116999        8.69559910376456
C            6.23943321817310       20.12708566669158       10.10682503470850
H            7.22314931116162       19.69787540608752       10.29983799969560
H            6.20536410021613       21.14992576105347       10.49576301770293
H            5.47289607889891       19.52067226756134       10.59906857017496
H            3.89203729914265       21.13608434510335        9.92304078719256
H            1.85726163339417       21.83051373950799        8.75031963410474
C            6.33779872255910       20.99750016287965        4.33359071489465
C            6.60986343188555       22.32586953789254        4.67615644119287
H            6.64089811603754       22.61006508497171        5.72232617812120
C            6.80742867680657       23.28263806056156        3.69355184440300
H            7.01337870771833       24.30877460092356        3.97644797028887
C            6.74251043765551       22.92180510659497        2.35349160312195
H            6.88996630633374       23.66895843169671        1.58242255072526
C            6.47727650076136       21.60492234857229        2.00497405189723
C            6.27575735792154       20.64534047737907        2.98678539644005
H            6.05712842807175       19.62329833616333        2.70097070430112
H            6.42254292225372       21.32052414429801        0.96051209952169
P           13.83902170756365       20.23291726401808        5.70590111408160
C           14.33289006087604       21.83524057250457        5.01688156872170
C           13.44449791061728       22.50835217411908        4.17063348893632
H           12.49602693092378       22.05048747807931        3.90935192928033
C           13.76600166391194       23.75860159911824        3.66755809329216
H           13.07530371615212       24.26702464489944        3.00504626402067
C           14.96492215393411       24.36545290204690        4.01744782259806
C           15.84173140483511       23.71599373279966        4.87426275614151
C           15.52949008723867       22.46042885060215        5.37281726953029
H           16.22271456968725       21.96162915889951        6.03930090589810
H           16.77547328037499       24.18749975567446        5.15755124138550
H           15.21078290816194       25.34553138736747        3.62608520765314
C           15.20147400226487       19.64399056286463        6.73169740293451
C           16.39303954450111       19.27397055398318        6.08555465787367
O           16.37551503720371       19.49349847225102        4.75302171139960
C           17.48554598042762       19.14143625770927        3.93741141419644
H           17.20299899349829       19.39653755770268        2.91527460610656
H           18.37653201446409       19.70936357736022        4.22363233969463
H           17.69439195429344       18.06880184623438        4.00248332615709
C           17.46247175826399       18.75167849913559        6.80403381825409
H           18.37871989658306       18.45953495105708        6.30983908974791
C           17.33897170100739       18.62234149951455        8.17966315332961
C           16.18523799304031       19.00972070828527        8.84753669641335
C           15.11192569339145       19.52660120145124        8.12505032428571
O           13.95217907395669       19.94087653374254        8.69563006766192
C           13.78489285476700       19.92177427082341       10.10684697545698
H           12.80117105540139       20.35096818370984       10.29988457549454
H           13.81896918709314       18.89892061949380       10.49575963266978
H           14.55142211105197       20.52816546753544       10.59913719034413
H           16.13227043207757       18.91282765549841        9.92308579892974
H           18.16704494665392       18.21836279266494        8.75039899174192
C           13.68653284473182       19.05128591449191        4.33356227318257
C           13.41421369635218       17.72298182972706        4.67614072344548
H           13.38319567656775       17.43878367632812        5.72231120898475
C           13.21671528227466       16.76620650041514        3.69353999158296
H           13.01086736663661       15.74004402385948        3.97642937405148
C           13.28181311848343       17.12700412878431        2.35347563511728
H           13.13442837207090       16.37983722908365        1.58240550649444
C           13.54711472370558       18.44387243875173        2.00495394371514
C           13.74864354329920       19.40344338043471        2.98676536190506
H           13.96733564450582       20.42547589054400        2.70096389730663
H           13.60194220249523       18.72825681491159        0.96049397545751
