153
 energy: -233.798493331238 gnorm: 0.000293224394 xtb: 6.5.1 (579679a)
Au           5.08308592724231        1.24907473169557        5.27631658433397
Au           4.96741958578680        3.75603805655477        6.44990510198828
Au           6.50755072367549        3.43004747010431        4.01194390932012
Au           3.55055202658604        3.18430961779080        4.03263966359861
I            8.06295090326090        3.01757661949487        6.51253189636392
I            2.12735795838249        4.44247592384636        2.23118106011413
P            5.96099822368714       -0.39687198539619        3.60493824385715
P            6.20064079857656        0.48351836770437        7.54482058189808
P            4.78812753201492        2.81925695942153        8.80166252807424
P            5.50755651073945        6.18360816396099        6.44732982991947
P            7.03512534074728        5.83633697480791        3.84756383564037
P            7.03301202302659        2.00066723777731        2.11027867603882
C            6.04143020751210        0.43188500828776        1.94141892595996
C            6.13827958378219        1.58138307597279        9.06179264180578
C            7.10207517565623        6.55949290858869        5.55617694172233
C            7.68670190671426       -0.98453843128094        3.76608204101057
C            8.56689328116314       -0.27378221968914        4.58331245082920
C            9.89358346087506       -0.65894471437148        4.70005152256340
C           10.35960720508925       -1.76762578044609        4.00863066115728
C            9.49227331465997       -2.48797295688145        3.19731341210685
C            8.16725531524578       -2.10025095214299        3.07431842173257
C            5.04828534356444       -1.94298804915270        3.27584048269682
C            4.12370604852856       -2.08483125300624        2.23891572939202
C            3.35896711611451       -3.23675493603441        2.12782839732863
C            3.49433710802877       -4.26005596830846        3.05547781925804
C            4.39829634406806       -4.12563018071998        4.10189167615216
C            5.16155374347774       -2.97605590008112        4.21394754822257
C            7.75036506217111       -0.48267387643375        7.79105196348149
C            7.77945824461163       -1.80945156006080        7.34934659101385
C            8.94165389839055       -2.56059033441124        7.41431160259068
C           10.10660987120527       -1.99670221791355        7.91750958805470
C           10.09732059242089       -0.67727528872930        8.34921150634466
C            8.93274485792665        0.07299522502748        8.28182023052469
C            5.02614932456469       -0.82369931429861        8.13721708034443
C            3.90373932303647       -1.11789733001069        7.36640926448397
C            2.98969171884386       -2.08355375329613        7.75887055869740
C            3.18764238543821       -2.77961880082060        8.94248416060027
C            4.30427503316810       -2.50598564902242        9.72244475000310
C            5.21524759548157       -1.54099016414691        9.32274468407202
C            4.80827821347827        3.81181144873204       10.34476488510975
C            3.80368145893211        4.77588661044101       10.48201851470410
C            3.75920515284125        5.60410792606582       11.59061719939787
C            4.72788644903833        5.49162671367845       12.58046079726035
C            5.73999614171524        4.55164908134561       12.44837924124472
C            5.78378313586246        3.72010888636202       11.33810760668183
C            3.29195231225111        1.80624790866653        9.09955806636647
C            2.29187326691375        1.77471599925579        8.12835657854567
C            1.15662492293248        0.99708711490646        8.30184464899832
C            1.00472153004694        0.24133257893222        9.45528279330278
C            1.98606829336096        0.27590288743205       10.43816632934118
C            3.11830186277925        1.05538931757224       10.26543421684983
C            5.89397192968189        6.85735144932955        8.09887455947428
C            5.13814418074276        7.84240960313210        8.73566597277190
C            5.44274565633344        8.23587914148464       10.03077745020133
C            6.49684526931630        7.64362162510488       10.71193275944630
C            7.23859838174674        6.64143535129457       10.09867680304508
C            6.93430413048693        6.24521772747045        8.80746637585410
C            4.37276299807731        7.38041915126195        5.67026310525027
C            4.61571392243368        8.75558594299665        5.58923004868154
C            3.74694351250648        9.57925349713674        4.89072024516587
C            2.63498443489021        9.04613146603204        4.24886984010029
C            2.38661504848399        7.68343226328381        4.31829628682213
C            3.24404963894371        6.86355235745492        5.03386300686704
C            8.76203487164338        5.94821846895132        3.27160564352495
C            9.80426173311681        5.47168487078628        4.07345254652996
C           11.09639634115203        5.38579296840255        3.57931795058039
C           11.36929063713115        5.75249758407264        2.26785010585424
C           10.33943008226064        6.20184502893484        1.45255159437263
C            9.04797499471666        6.29488475161835        1.94758966365814
C            6.20233258081619        7.14505990569018        2.88017232271163
C            6.68938265657709        8.45402181754863        2.80194280220909
C            6.01743595738305        9.40862108333444        2.05554108422237
C            4.85200059587631        9.07342639977912        1.37600368771310
C            4.36142673514520        7.77824735154201        1.44709222956007
C            5.03374400515960        6.82080414555181        2.19121523326803
C            6.61315879935353        2.92426443100445        0.59783745220154
C            7.57402219337816        3.43063739636502       -0.28018618599748
C            7.20868012304945        4.30386606452579       -1.29465568482878
C            5.88486659921987        4.69648323813131       -1.44091707864571
C            4.92262316018742        4.20717278127693       -0.56729546613660
C            5.28466677740018        3.33245691027702        0.44203906622070
C            8.76361050959824        1.49228168898832        1.84292125961954
C            9.73187760328212        2.09593304545331        2.64801453033109
C           11.07288655395343        1.77576882525625        2.50824549356069
C           11.46501010173335        0.83696509609968        1.56432569897916
C           10.51197763746294        0.22792832603220        0.75791886791276
C            9.17153062786682        0.55549299474780        0.89029045353529
H            4.32839638884655        9.82516271284006        0.79602524829227
H            8.61462994512353        3.14754191993970       -0.16678776104353
H            3.88680450352109        4.52006065171425       -0.64706124160494
H            7.96688774413135        4.68887970888610       -1.96789877159518
H            9.42407137773982        2.81600055500714        3.39890055727279
H            3.44770987661805        7.50393360134380        0.93111427399622
H            4.61888177090180        5.81738379182460        2.24760498317444
H           11.81102465952835        2.25541330279279        3.14124785492797
H            4.52117421522147        2.99574476286941        1.13673515732946
H            5.60738173098232        5.39068459803879       -2.22607906366284
H           11.39630127215522       -2.07140665424579        4.10036018481984
H            7.50018103788045       -2.66829120934555        2.43503048917400
H            8.22062228749251        0.59818866769100        5.13242721712105
H            2.65026724386333       -3.33311909942861        1.31269648612196
H            2.89351289169971       -5.15805091565925        2.96714571319256
H            6.87754336004021       -2.26031755253888        6.94888555113762
H            5.02820888075283        0.72417701091690        1.66231044785277
H            6.43217353448047       -0.22833670293124        1.16592142908239
H            9.85112264937001       -3.35498990387286        2.65371766332774
H            5.85998318013574       -2.87359066065687        5.03817333723073
H           11.01845735044996       -2.58108653553439        7.96703343066389
H            4.50451317621045       -4.91751184152772        4.83503640531611
H           11.00431669534256       -0.22646169220985        8.73693744781793
H            8.95073691715060        1.11057575040242        8.59483690033870
H            3.74369007763938       -0.57313888173845        6.44212360197161
H           10.56295552547467       -0.09115707463546        5.33659945336014
H            8.93971259528676       -3.58741418095130        7.06544957717129
H            3.99763293399520       -1.29361312414402        1.50865896926706
H            7.07598891899065        2.13213393359902        9.12499996320394
H            6.00769508261596        0.99506392613399        9.97173557703337
H            7.89428441281501        6.04422408571800        6.10100022884233
H            7.32314170508389        7.62774867156767        5.55075402348601
H            6.40338894173154       10.42086031702638        2.00454863433962
H           11.89304345476078        5.02162902981381        4.21877839997779
H           10.54136397054600        6.47697798078592        0.42316336604227
H            8.25096730688069        6.63682435326524        1.29641914265313
H            1.54468392086230        7.24061284888951        3.79637393129992
H            7.59904941552809        8.72495743318021        3.32747879844733
H            1.97184572739194        9.69476897603288        3.68764780425521
H            9.59931457944203        5.14229224401264        5.08760034318777
H           12.37907171649765        5.67874238685006        1.88016588421951
H            3.04949080968443        5.79768529240507        5.06927536354479
H            3.94721142125924       10.64357920153703        4.83274647765396
H            8.04967036455208        6.16067411784190       10.63430492829951
H            4.69663419826215        6.13990713473871       13.44878951262964
H            6.08861830236581       -1.34810313695393        9.93710742227821
H            0.39240787401504        0.97897041276968        7.53314743292131
H            0.12237844260304       -0.37378133694380        9.59122982659140
H            1.86909529158740       -0.31032984942086       11.34292272453190
H            4.30552374971821        8.30538177279962        8.21788864293613
H            2.12252704472401       -2.29074737769149        7.14175831944898
H            6.50302134381398        4.46417392173665       13.21405494384019
H            2.97171983623069        6.34386762132464       11.68209116298212
H            3.87591038340448        1.07822188981358       11.04157219743405
H            4.85026848270450        9.00650640444771       10.51156188849319
H            6.58475022996466        2.99494314956982       11.25306386604688
H            6.73182889888766        7.95157730337041       11.72450822281795
H            4.46644261447669       -3.04995906566260       10.64662577587321
H            3.04954624148442        4.87192486039693        9.70706813306313
H            7.50042367661292        5.44263437557595        8.34090230258941
H            2.47591380581699       -3.53470106532666        9.25693580363274
H            2.40986794427057        2.36106330146918        7.22440660870043
H            5.49327448244816        9.18163094819504        6.06378132802276
H           12.51205213365974        0.57709186121010        1.45690284116631
H            8.43952814070449        0.07746945804167        0.24862227295276
H           10.81517997467078       -0.50630333482258        0.01977819595719
