142
 energy: -217.917331127946 gnorm: 0.000775053247 xtb: 6.5.1 (579679a)
Au          -1.77967859546506      -25.51722558963378       -7.88040802613116
Br          -0.00023645341015      -25.74173571591825       -9.64256881961084
P           -3.73525720637295      -25.45302570058534       -6.60572371436466
C           -3.59511587264406      -26.51446589896537       -5.14019395357967
C           -3.38692853695897      -27.88277252533288       -5.35578121738263
H           -3.39643917888796      -28.27094360831972       -6.36864340074857
C           -3.20340835114462      -28.74499743862135       -4.28674301160599
H           -3.05339509325713      -29.80284915040434       -4.47019269709724
C           -3.21803144077494      -28.25215397777942       -2.98750685203344
H           -3.07340186344689      -28.92520070791176       -2.15087419785825
C           -3.42311010898841      -26.89841496761428       -2.76462687573491
H           -3.43965752892379      -26.51064617731793       -1.75287155024376
C           -3.60847076360862      -26.03098362468175       -3.83218904782434
H           -3.76738657996342      -24.97553402730414       -3.64466626156113
C           -4.24037725149724      -23.81612591263815       -6.00834350839963
C           -3.30085463431323      -23.01113134995444       -5.35444495338545
H           -2.29128373231173      -23.38067135255023       -5.20170346659190
C           -3.64654704187457      -21.75031571982508       -4.89730017187513
H           -2.90777561427048      -21.14258507636644       -4.38749620043888
C           -4.93332753801209      -21.26799556813934       -5.09853264668265
H           -5.20280613160655      -20.28006589220176       -4.74457974825540
C           -5.87042826945367      -22.05266487704876       -5.75536722621754
H           -6.87504193128210      -21.67999849905045       -5.91688530599227
C           -5.53007910915343      -23.31821213389984       -6.20871122091700
H           -6.27010687484452      -23.92354128128470       -6.71877279381095
C           -5.15161736051800      -26.11305308851424       -7.52100822415567
C           -5.19879946789169      -25.95768874296763       -8.90933186443964
H           -4.38422587549092      -25.45478360698674       -9.42033027564699
C           -6.27662689212108      -26.44108679510986       -9.63462488715057
H           -6.30313329587526      -26.31104033885915      -10.71010440773771
C           -7.31782137558833      -27.08932519748775       -8.98269444022018
H           -8.15942761745394      -27.46849160592127       -9.55002780212380
C           -7.27894186979055      -27.25192596960028       -7.60440841907725
H           -8.08955215319944      -27.75724277900808       -7.09271980361666
C           -6.20536000098937      -26.76738670622438       -6.87425737207024
H           -6.18042511078747      -26.89736761545036       -5.79842940364275
Au           0.22397973525308      -23.96363308987939       -6.19074905067663
Au           1.78236404957772      -25.96901467049454       -7.88372103543566
Au          -0.22731237279809      -27.52544555582636       -6.18581226477321
P            3.73528863622000      -26.03246884135331       -6.60556048167156
C            3.59553384449190      -24.97101113137412       -5.14004981000141
C            3.38741358106000      -23.60271357569243       -5.35572018799651
H            3.39690257705832      -23.21460417860450       -6.36860848274748
C            3.20359285023094      -22.74048793030596       -4.28673811706932
H            3.05349622042496      -21.68266476476997       -4.47025236155608
C            3.21800266546351      -23.23333303953452       -2.98750223015001
H            3.07331909475824      -22.56026707165207       -2.15090349687538
C            3.42302440701518      -24.58707174640795       -2.76456508073910
H            3.43943392647571      -24.97483568146086       -1.75281083347327
C            3.60856566962827      -25.45451665838169       -3.83207685796044
H            3.76734940662390      -26.50998825504174       -3.64456313729824
C            4.24033464941545      -27.66945326473918       -6.00838053705163
C            3.30081572609604      -28.47441647887461       -5.35441969638481
H            2.29125355036131      -28.10487315310085       -5.20168129485886
C            3.64652075305699      -29.73521682432382       -4.89722136387080
H            2.90773720898467      -30.34295141287501       -4.38744194755217
C            4.93330221896850      -30.21754706390184       -5.09842258464180
H            5.20277213694010      -31.20547030334044       -4.74443503308795
C            5.87040906045273      -29.43291472108163       -5.75528911965689
H            6.87501406062734      -29.80561065235404       -5.91681469724528
C            5.53005346839949      -28.16738930307811       -6.20872223153663
H            6.27009778918471      -27.56206546745043       -6.71876630524513
C            5.15157435119817      -25.37254505404206       -7.52099179578879
C            5.19866185139427      -25.52788123390374       -8.90931558495333
H            4.38396859303495      -26.03068388300493       -9.42024652734584
C            6.27654623165935      -25.04454743127137       -9.63460955312086
H            6.30307821240383      -25.17458949580090      -10.71009097088920
C            7.31779734722580      -24.39636815160531       -8.98269202991104
H            8.15942947656894      -24.01724254296477       -9.55002055687836
C            7.27894982987887      -24.23375889322620       -7.60440720380141
H            8.08957758156492      -23.72846905958050       -7.09271934477122
C            6.20537013958670      -24.71828244055215       -6.87425214246458
H            6.18043830564690      -24.58828809051898       -5.79842843413021
Br          -0.00031120750327      -25.74203747803476       -4.42644925868481
P            0.28978482632854      -22.00757877168874       -7.46395086899670
C           -0.77165429867298      -22.14776853527860       -8.92949314350883
C           -2.14002132722777      -22.35570236501376       -8.71393949873311
H           -2.52821329866468      -22.34611300425606       -7.70109220033039
C           -3.00225393927283      -22.53922651279268       -9.78299117633154
H           -4.06009892938635      -22.68926938590069       -9.59953767371616
C           -2.50940129752524      -22.52469564572280      -11.08222244761444
H           -3.18245686996313      -22.66930288562269      -11.91885610672539
C           -1.15565650753727      -22.31966806118406      -11.30510032060445
H           -0.76789345352195      -22.30315004596588      -12.31686264561967
C           -0.28819719160800      -22.13438414804891      -10.23752813369757
H            0.76724507601079      -21.97544876821022      -10.42507134046222
C            1.92665849864788      -21.50246036889831       -8.06140743602505
C            2.73163457553480      -22.44197699363857       -8.71534732548450
H            2.36211027010641      -23.45155318696872       -8.86807482199392
C            3.99243246583794      -22.09627594983153       -9.17253850858905
H            4.60016734680564      -22.83505814137048       -9.68232227145558
C            4.47474415350994      -20.80948765288883       -8.97135411859485
H            5.46266023517818      -20.54001040372158       -9.32534802080411
C            3.69009393782052      -19.87238038184626       -8.31450712378401
H            4.06276863910527      -18.86776777174824       -8.15299624934893
C            2.42456249861840      -20.21273512258901       -7.86110675248408
H            1.81923554339722      -19.47270415334092       -7.35104884147292
C           -0.37019917159448      -20.59115217319193       -6.54872773440758
C           -0.21484128752351      -20.54393438299882       -5.16040369296918
H            0.28807526129664      -21.35847603972420       -4.64937736771542
C           -0.69825150561556      -19.46611611107950       -4.43512959828211
H           -0.56821139828452      -19.43960550921453       -3.35964957104359
C           -1.34648493897541      -18.42493409171264       -5.08707271736651
H           -1.72563775578913      -17.58331913309565       -4.51974767418190
C           -1.50909675199755      -18.46383100362807       -6.46535858876864
H           -2.01442195917835      -17.65323265145868       -6.97705489589887
C           -1.02455161659223      -19.53742177151749       -7.19549666230443
H           -1.15455156366699      -19.56238426807959       -8.27132154260906
P           -0.28967070856550      -29.47812774677593       -7.46433605260072
C            0.77181056600645      -29.33832501796325       -8.92981737361781
C            2.14006122073492      -29.12998719005358       -8.71413671402417
H            2.52817403481441      -29.13944174125898       -7.70124333830463
C            3.00227790420652      -28.94624929731285       -9.78312255613246
H            4.06012065987490      -28.79623652544162       -9.59963207565180
C            2.50943423915257      -28.96076476245601      -11.08236131210524
H            3.18248627284885      -28.81607423118321      -11.91896893530279
C            1.15569689637082      -29.16582175329470      -11.30528502252374
H            0.76792326413061      -29.18228306655424      -12.31703232978641
C            0.28828274711351      -29.35139041969781      -10.23777009176993
H           -0.76719240392573      -29.51017664705057      -10.42526551859091
C           -1.92665377269618      -29.98318400025688       -8.06147797855230
C           -2.73162306928969      -29.04364458510286       -8.71538313332356
H           -2.36205226300920      -28.03409027335652       -8.86813235197475
C           -3.99244263484987      -29.38931818702346       -9.17253421450100
H           -4.60016555794138      -28.65052911230284       -9.68231913375505
C           -4.47478803084914      -30.67609092645784       -8.97129812224902
H           -5.46272561923752      -30.94554765007175       -9.32524846358544
C           -3.69015072840636      -31.61320383151631       -8.31444319166828
H           -4.06284952688002      -32.61780346549948       -8.15290376290354
C           -2.42460650979844      -31.27287165092468       -7.86106815460777
H           -1.81928413401861      -32.01291281474488       -7.35101561083770
C            0.37033085886924      -30.89434777754535       -6.54885264301523
C            0.21501077624321      -30.94141348591142       -5.16052546115206
H           -0.28776659333186      -30.12669524371931       -4.64960247532707
C            0.69832087800603      -32.01931738711867       -4.43522375375456
H            0.56828731769437      -32.04584181289242       -3.35974074278450
C            1.34646816909954      -33.06059408015926       -5.08714139419080
H            1.72559904643771      -33.90222563796193       -4.51981023106743
C            1.50903547253295      -33.02176665437212       -6.46543045633151
H            2.01427967098273      -33.83242506348062       -6.97712019847754
C            1.02453617814118      -31.94817771989249       -7.19558802435392
H            1.15448820965855      -31.92328703833733       -8.27141869889132
