182
 energy: -285.912390138192 gnorm: 0.000452451841 xtb: 6.5.1 (579679a)
Au           8.10507960525819        1.13403373400523        6.04094501959184
Au           7.90666831213133        4.04219732228290        5.14815123618985
Au           8.09352282511073        3.11252703698527        8.56400823101950
Au          10.61012850610016        2.33868778554921        4.63445700464598
Au          10.73933702415964        1.72303700567231        8.11102662731165
Au          10.52475520680548        4.58832854301074        6.69881876580021
Se           8.23808460672545        5.17262788478306        7.28566596608828
Se          10.42268358567004        0.39903802741790        6.10004098551937
P            5.83000719509728        1.49074985091313        5.56400000947858
P            6.92187376557862        3.09568619279594        3.23036254785972
P            8.12080026199154        1.44520886404558       10.21509676284414
P           10.90503116403164        2.51802466891252       10.31273475119680
P           11.45380612117196        4.01407395377915        3.20967071200900
P           12.74041184421615        4.52137027266784        5.91300161654174
N            5.73060186796580        2.02675530846238        3.91188757757121
N            9.56045892293824        1.77894344352671       11.13828830459234
N           12.68071263735280        4.76286744714344        4.19149329369351
C            4.65213584453956        1.53502317125891        3.08461707660921
C            3.41380116670227        2.16467270568727        3.12455340414533
H            3.26366314163089        3.02830858855095        3.76075989886973
C            2.37450029794995        1.68058628252994        2.34277062899798
H            1.40835124654495        2.17040951106453        2.37372858404900
C            2.57089245859317        0.57525140632375        1.52664499782864
H            1.75706307149717        0.19925371385810        0.91844421073103
C            3.80967485651739       -0.04994160115462        1.49202386892105
H            3.96564741326666       -0.91585149063915        0.85939227828290
C            4.85472001915423        0.42637907603068        2.27101331994619
H            5.81924813844533       -0.06585620674945        2.25448432905488
C            4.73639358419984        0.04655597055795        5.57189318859697
C            5.29824140952801       -1.20029177006683        5.28140541685928
H            6.36179676136532       -1.27255868391237        5.07830544942985
C            4.50579687329541       -2.33610095948811        5.24495064645816
H            4.95054463878250       -3.29668708830261        5.01276641125839
C            3.14500339737558       -2.24040690452830        5.50626824482456
H            2.52496396344118       -3.12861797775199        5.47907056565958
C            2.57957624524323       -1.00790777769845        5.80473048380317
H            1.51821745197195       -0.93208620516539        6.01005709222985
C            3.36746727738458        0.13175507653695        5.83912984301375
H            2.92065696583237        1.09229213435486        6.06845573132377
C            4.96933721053702        2.75277798506811        6.55336664676684
C            4.80941148446441        2.48829768927601        7.91832549987352
H            5.08225850749489        1.51379887395193        8.31004589421811
C            4.29192229928972        3.45219808064307        8.76880046697758
H            4.17039105461475        3.22979044758093        9.82292605995390
C            3.93362377505856        4.69827665541944        8.26904741781211
H            3.53151025855828        5.45361816138301        8.93363176457066
C            4.09349399468331        4.97315187075487        6.91852721201906
H            3.81685577947054        5.94398385609795        6.52418782913994
C            4.61416112829098        4.01012155663972        6.06618032718162
H            4.74026071858883        4.23535431171638        5.01381094162672
C            5.94165379148188        4.18624085170248        2.16549090390353
C            5.76224067050375        5.51373544490178        2.56319472428100
H            6.23564852488985        5.86673797514561        3.47339772493229
C            4.99550172632086        6.38118593914013        1.80136275495352
H            4.86490692412278        7.40810907526846        2.12211609979035
C            4.39794748688673        5.93285181103656        0.63140600243184
H            3.79712705497084        6.60973574332355        0.03564021919782
C            4.57332475390949        4.61690579401483        0.22282986947599
H            4.10963157020513        4.26498270735427       -0.69125678574618
C            5.34118305866567        3.74731788334717        0.97973054251051
H            5.47353332580863        2.72192359952843        0.65438909071456
C            7.88993626679415        2.06333236392548        2.08110794355153
C            8.31709052512246        0.78729081325248        2.45961906729298
H            7.96122209650327        0.35903936905433        3.38969142651206
C            9.17468111130926        0.05733039146996        1.65267010762066
H            9.48868222102285       -0.93350646789790        1.95942847678188
C            9.62897210975290        0.59587289578805        0.45557564651726
H           10.30258966135656        0.02757513661395       -0.17469558919566
C            9.21317055171258        1.86168855836544        0.06666974749715
H            9.55855374179027        2.28413680716005       -0.86973314133270
C            8.35321854131433        2.59186481468501        0.87314537312209
H            8.03093736900070        3.57824089496313        0.56063899623450
C            9.63738244115453        1.45605389848610       12.53940921639438
C            9.42835422807115        0.14833852176268       12.96246457769328
H            9.21302978155861       -0.63074815477845       12.24201222875991
C            9.50110388536581       -0.15781976340925       14.31371262242203
H            9.33576841233249       -1.17823973425491       14.63905474772848
C            9.79057308457714        0.83280755618227       15.24136813736589
H            9.85069527618882        0.58963535849938       16.29521152635501
C           10.00296140569738        2.13599305445965       14.81437774864240
H           10.22781848272281        2.91556448914293       15.53281054591832
C            9.92264602257527        2.45252664797268       13.46597673077847
H           10.07935045629471        3.47293437258462       13.13937444985190
C            6.81207589652191        1.37851683977116       11.46720437788562
C            6.32606458494441        0.18460797443391       12.00679330886276
H            6.73688653707395       -0.76406200259699       11.68188449594701
C            5.31921166159995        0.20879471974050       12.95921068179124
H            4.95314857392184       -0.72277273016583       13.37464950696938
C            4.78290278637161        1.41789145599877       13.38022892447236
H            3.99713917275083        1.43227616854570       14.12617091674131
C            5.24908971210348        2.60958084925875       12.83980470376281
H            4.82829826290845        3.55545932689821       13.16023905272491
C            6.25186954457630        2.59044332961352       11.88467138299587
H            6.60899000619991        3.52127680076210       11.45657960026550
C            8.28636716500714       -0.25158281559220        9.57823223581143
C            9.47031870784427       -0.98743665094619        9.62606160371100
H           10.32267398473331       -0.60058102204366       10.17105578109406
C            9.56157138471519       -2.21634844233770        8.98832626276520
H           10.48678510060642       -2.77837717142904        9.03903696507805
C            8.47681656917166       -2.72141383690642        8.28623321952366
H            8.55094307105532       -3.67997378466563        7.78669894285282
C            7.29498761181830       -1.99361409933604        8.22243223499968
H            6.44306902072222       -2.38078536308841        7.67513584378051
C            7.20246362751402       -0.76574249785783        8.85775889640172
H            6.27766298469721       -0.20033598285749        8.80569314309232
C           12.33490375099991        2.07176757786883       11.33327309796785
C           12.90029060386266        0.80700846782138       11.13914864303768
H           12.47376472551224        0.13738602091473       10.39960713523862
C           13.99562086993744        0.40438483903808       11.88505886144894
H           14.41993619857746       -0.58075552915362       11.73052256017078
C           14.54946739379626        1.26483058622692       12.82446581879558
H           15.40776385558500        0.95110268513742       13.40666699372125
C           14.00699538814240        2.52863241483159       13.01212133176882
H           14.44044762134870        3.20414545989186       13.74027629375190
C           12.90784527432313        2.93449840870756       12.27139081411008
H           12.49240327064979        3.92382500785290       12.42290088830781
C           10.70732341898350        4.31807179625297       10.49369385243534
C           11.71977479395662        5.12399027747634        9.96097202632890
H           12.62188692094881        4.66326617883833        9.57164654945345
C           11.58684850464396        6.50299035719640        9.93860740431447
H           12.38428103204074        7.11287542919701        9.52949914564427
C           10.43422103691415        7.09788519421002       10.43658452051402
H           10.32844321213712        8.17597754582764       10.41670376472041
C            9.41889442507661        6.30808627643108       10.95628587970447
H            8.51645432685696        6.76654270247804       11.34343950390186
C            9.55068259773489        4.92703126472214       10.98037935127687
H            8.75276291492266        4.31826588704017       11.38771910640628
C           13.67640019505324        5.61046002138621        3.57634962059486
C           14.92941542059190        5.09081737320571        3.27317191029681
H           15.15068404695714        4.05106349287128        3.48105860384385
C           15.89121789022949        5.91266242550214        2.70299957523441
H           16.86894731647594        5.50900757447371        2.46759803237754
C           15.60304458829039        7.24399785543896        2.43652653418159
H           16.35652742348615        7.88306241814178        1.99215679554013
C           14.35026505581937        7.75727952081275        2.74274557044171
H           14.12336319247151        8.79750603988204        2.54070959255188
C           13.38266522037715        6.94377705724235        3.31532169523054
H           12.40840724639198        7.34436758673213        3.56680644613203
C           12.36724878749600        3.46007494497286        1.74544145945940
C           12.53942855118704        2.08638303805846        1.55432644584052
H           12.09643681279307        1.39019053297287        2.25877885015887
C           13.25941243195895        1.60861050229929        0.47086443567720
H           13.38440756114711        0.54056409430727        0.33601178166486
C           13.81792673900813        2.49818726386506       -0.43663234253445
H           14.38302978338422        2.12613362145609       -1.28298393623566
C           13.64866953415006        3.86561741440436       -0.26123311911414
H           14.08103331588367        4.56226631620406       -0.96985804545935
C           12.92676655890982        4.34731262665864        0.81849740598010
H           12.79876190857349        5.41574998942889        0.94749471673443
C           10.41316694842066        5.39294492646189        2.62744010830810
C            9.92555959611159        5.42525180350827        1.31832195054041
H           10.26607143882908        4.68948686259060        0.59925181141234
C            9.01753779848387        6.39833168922049        0.92747645604991
H            8.65396918466242        6.41285714780740       -0.09338542946416
C            8.57752020894780        7.34911040038696        1.83751579687497
H            7.86605920715041        8.10659781498093        1.53092687787267
C            9.05583342327599        7.33037749456267        3.14168493548909
H            8.72358669761461        8.07474742713466        3.85581098879803
C            9.96146288757681        6.35789432627027        3.53307622470993
H           10.33810040426259        6.35288789202916        4.54960782405915
C           13.66731930623610        2.97760545403412        6.17834652086937
C           13.97270097498281        2.07131583435832        5.16369747443051
H           13.76088010245167        2.32598101100331        4.13203257500885
C           14.55426504961907        0.84812752774213        5.46508595148111
H           14.79031732313190        0.15595702066962        4.66524627381925
C           14.82669179521158        0.50940984096083        6.78267175546156
H           15.27593441131159       -0.44852227533801        7.01600948591584
C           14.52101714881839        1.40095105984348        7.80373923496862
H           14.73135721304230        1.14426504655515        8.83586875387831
C           13.94194304634090        2.62367401588920        7.50426912801196
H           13.71065341962979        3.32092721562492        8.30291496941768
C           13.85064098507515        5.84576514247563        6.45653515330026
C           15.23376930223859        5.68121600761947        6.56789894143130
H           15.68478764379790        4.72418788920883        6.33233534024543
C           16.03039272104823        6.74060542154677        6.97287908736573
H           17.10249684473676        6.60463166429046        7.05358014833290
C           15.45973391708563        7.97056731067290        7.27156381881057
H           16.08642332912974        8.79638034990601        7.58684552017616
C           14.08521957877318        8.14243832867747        7.16912484460326
H           13.63641085099046        9.10083097433905        7.40251437092386
C           13.28430288697540        7.08547673446210        6.76830384705836
H           12.21005022382855        7.21691456616935        6.68890673024605
