230
 energy: -349.588020419074 gnorm: 0.000674913608 xtb: 6.5.1 (579679a)
Au           4.08695998254784       10.34652468693306       15.32525173379926
Au           5.40469281356108       11.79807528932706       13.30861682491142
Au           3.38813406627225       12.93927900277123       14.47330817889322
Au           3.94222621825024       13.75912868159731       11.64391373956679
Au           5.46543287206296       14.79701975462894       13.47012898513306
Au           5.04264802680472       16.29962427424877       11.13052266472957
P            2.60874250665508        8.77997149407445       14.18811902841857
P            5.32025987553831       10.62431439335340       17.40695271560962
P            7.29606601331172       11.05332746198006       12.05684637747406
P            1.61251314407654       14.28978028476257       15.32767093197598
P            2.52014729489138       12.50285234262451       10.19258315286351
P            6.81569276141798       15.44743460557833       15.32803820813565
P            6.94302642680324       15.94232323721791        9.65070288453652
P            3.33176625476285       17.95137077645600       11.65865843633530
C            3.52720744591971        7.50318939161984       13.27588908657610
C            4.88018804028383        7.32177624727447       13.57231801990588
H            5.34048794315174        7.92457899034583       14.34856573212620
C            5.63550616817029        6.38520485208016       12.88443369959171
H            6.68463746084289        6.25675550930336       13.12534595117452
C            5.04759110249054        5.61880857701173       11.88760850691856
H            5.63650672380132        4.88732503350130       11.34693307757420
C            3.70368978577229        5.79318317590614       11.58047635945208
H            3.24301625202261        5.19573469335294       10.80236341178543
C            2.94615733923258        6.72971338489905       12.26653755880590
H            1.89986852557181        6.86688730838482       12.01695036878375
C            1.36339556431729        7.92730464170151       15.19871219614065
C            1.28714160366150        6.54083550032761       15.33469529810647
H            1.95739518101667        5.90346126688712       14.76932693920354
C            0.35289832173372        5.97475658289482       16.19011484805423
H            0.29956846360076        4.89655465907203       16.28638104090955
C           -0.50840963931351        6.78138626845189       16.92027635696256
H           -1.23609518089041        6.33457690835710       17.58732466179878
C           -0.43270702440286        8.16375840707202       16.80039325158614
H           -1.09936887526424        8.79970393336755       17.37194080557625
C            0.50166684352642        8.73382864960250       15.95284841660655
H            0.56731481714503        9.81446224296823       15.86645786776940
C            6.17686912643442        9.18219108689289       18.10491712436075
C            7.09462190889982        8.52717725065846       17.27410995432300
H            7.29610615822795        8.92161020657600       16.28248342279038
C            7.74723787970384        7.38664003664142       17.70994296871690
H            8.46181591997034        6.89404165376650       17.06021969519433
C            7.48037181571026        6.87443531370812       18.97380387539216
H            7.98786811047530        5.97948082533958       19.31381067532015
C            6.55896070051603        7.50636513297896       19.79677763434823
H            6.34460995930162        7.10538283530941       20.78059148165841
C            5.90644817083866        8.65287035846412       19.36725447885926
H            5.18702138606558        9.13940432123598       20.01595002914467
C            4.25300347253452       11.29619308843768       18.71713814998310
C            4.76184729331686       11.89946608460853       19.87128688046668
H            5.83427128823554       11.96029350852594       20.01972767599600
C            3.90143126064197       12.42511167630432       20.82264479013781
H            4.30607030080394       12.88676398846751       21.71582608798946
C            2.52621541561063       12.36126432824404       20.63458151842066
H            1.85755732514708       12.77639519639752       21.37941411255434
C            2.01057233225849       11.76897371658769       19.49011946370529
H            0.93869855758925       11.71968700096599       19.33527445016705
C            2.86877101423305       11.24141328755864       18.53831276476336
H            2.46574633219629       10.78188343097897       17.64162807008521
C            6.96712642299371        9.92469769422956       10.67034179426167
C            5.76297087819003        9.21779950520927       10.66933732103520
H            5.05880686395126        9.36670898488280       11.48078731127733
C            5.46612261422391        8.32876405869584        9.64905731338385
H            4.52761803136110        7.78622779512035        9.66303879850603
C            6.37014699402831        8.13781560653246        8.61305926952265
H            6.14106265273861        7.44141420191869        7.81507349663609
C            7.56541871082830        8.84538366977916        8.59635580475114
H            8.26916503116817        8.70217700705298        7.78466304469572
C            7.86444714261373        9.73561474250667        9.61581252047460
H            8.79820658082096       10.28647759487335        9.59640917644037
C            8.49663185079231       10.18071082572719       13.10216302378819
C            8.99675710234910       10.86320102651555       14.21708087722858
H            8.73323344804030       11.90556563523567       14.36930300681789
C            9.81986549215215       10.21902749870985       15.12522447845383
H           10.20699925040323       10.76194301532042       15.97978783509689
C           10.13978284907051        8.87859834617434       14.94606785673686
H           10.77805899167002        8.37345817679805       15.66135039166038
C            9.63794975873327        8.18912770901500       13.85129998612074
H            9.88274551783113        7.14291608895199       13.70897044964581
C            8.82018065937608        8.83340020055299       12.93445143549200
H            8.43138489687658        8.28624397873772       12.08320943919431
C            0.10241985270665       13.33852621942845       15.66153862513604
C           -0.39887186756778       12.54685514016573       14.62186954073716
H            0.07017655826660       12.58867475974638       13.64348574173987
C           -1.48352333322460       11.71227054701655       14.83341010435615
H           -1.86723682225843       11.11108704470298       14.01719281910704
C           -2.07179737658589       11.64031744599442       16.09032476134697
H           -2.91630797481881       10.98200321376950       16.25644089272235
C           -1.57372009185636       12.41111348623562       17.13120237635930
H           -2.02799961233030       12.35632913417524       18.11370460538318
C           -0.49282059021647       13.25500545045040       16.92114733689042
H           -0.11042929379537       13.85298192199158       17.74041851921691
C            1.95379374882680       15.19500162073833       16.86633626450380
C            1.23406608025263       16.32792721403331       17.25590270947725
H            0.44258320736849       16.70916796539702       16.62035624174740
C            1.52800271840781       16.96412523980132       18.45174179446238
H            0.96168283143146       17.83946854120551       18.74782425750441
C            2.54280199313906       16.48336995077042       19.26946293504844
H            2.76832353940117       16.98280806154481       20.20429325327685
C            3.27269858727339       15.36710127401949       18.88470648833718
H            4.07185788614794       14.99221839050993       19.51407686515344
C            2.98000159969034       14.72899161284592       17.69035077251355
H            3.54717569359438       13.85498514482339       17.38933915456736
C            3.34318809270176       11.57437259748038        8.86440540601277
C            2.75093999628551       10.48319029475012        8.22265870717740
H            1.76422233072397       10.15019508236211        8.52468163746069
C            3.41988840344059        9.82719926774233        7.20124932966450
H            2.95094350834709        8.98476408613100        6.70627740395498
C            4.68545333964702       10.24637969165497        6.81102719910515
H            5.20432971754009        9.73176243070267        6.01093743681356
C            5.28800452449071       11.32033547826116        7.45163380378857
H            6.27922590169718       11.64665355379584        7.15785603557988
C            4.62078267948652       11.97824351492354        8.47211810144994
H            5.08852801164273       12.81955102911325        8.97175644192325
C            1.28190191599133       13.53168506405554        9.35304690038447
C            0.46203287111849       14.33381105687893       10.15518909450500
H            0.53020559883848       14.25678095756712       11.23612544951551
C           -0.43071897544308       15.22291022115818        9.58055058791776
H           -1.06667687749607       15.83135597070608       10.21313384358383
C           -0.50437920608770       15.34000632983350        8.19784840978951
H           -1.19902353351675       16.04051839470936        7.74962728511468
C            0.31484347465835       14.55992815657841        7.39409918105176
H            0.26278725843392       14.64992449714527        6.31527036943837
C            1.20399812605982       13.66141658395243        7.96557461474985
H            1.84009543571164       13.05647671440477        7.32960918455499
C            8.36535617486512       16.23030995437241       14.79815714621818
C            9.22820728782993       15.48251225519167       13.98871509161922
H            9.00243267289618       14.44029734967426       13.78403382089608
C           10.36305543555692       16.06231682027276       13.44720163375176
H           11.02803657018012       15.46912041323531       12.83014576994298
C           10.64266338333962       17.40232126753586       13.68610073629659
H           11.52721891703285       17.85662323016640       13.25558570778798
C            9.78533746329401       18.15663862339431       14.47470921647694
H            9.99779641076923       19.20290866263356       14.66165425152544
C            8.65269557508683       17.57694682356068       15.02726328933453
H            7.98807734370164       18.17421810094076       15.64109765729949
C            6.07078587040590       16.62215813352162       16.49859540388504
C            4.98977236731861       17.39050859131357       16.06189114931560
H            4.62054310533105       17.26148529733291       15.05021337918614
C            4.39338710607658       18.31484579395701       16.90420376411239
H            3.55549007558606       18.90471181040437       16.55017716162695
C            4.86972381749574       18.48047544326034       18.19749835513078
H            4.40614539727158       19.20419006669762       18.85747997635836
C            5.93663530799412       17.71293191049283       18.64720184954993
H            6.30554148531772       17.83684590004723       19.65872046917536
C            6.53445291038497       16.78717901938504       17.80653304255322
H            7.36576678888856       16.18971969065469       18.16389303652181
C            6.40611740314815       15.32098558885951        8.02815624538522
C            5.06027843296554       15.45485771616046        7.67897575794562
H            4.37794934180117       15.94337044189973        8.36705839855233
C            4.59127664717336       14.96880530408478        6.46875996116042
H            3.54347851949662       15.07939072550567        6.21343416967501
C            5.46303270607852       14.33944115910135        5.59098041556826
H            5.09859194958654       13.95675359675544        4.64495927264821
C            6.80337573854073       14.19667415521069        5.92830142816016
H            7.48575881224826       13.70580550954118        5.24416716368845
C            7.27451448568231       14.68066631999505        7.13888215148880
H            8.31976555657541       14.55819093412229        7.40017207147391
C            8.07330471967532       17.33113973045941        9.34336897605093
C            8.63918960089470       17.94681613362500       10.46686399941463
H            8.42695594029578       17.55405489280527       11.45689875166632
C            9.46752700216230       19.04670564357052       10.32271303886007
H            9.90595394769005       19.50880282939587       11.20001431312866
C            9.72880435234435       19.55762081048137        9.05717002586922
H           10.37369933747360       20.42100523507801        8.94412914166208
C            9.15783623950685       18.96522758880293        7.93972310415911
H            9.35516466013035       19.36563055379104        6.95211908285082
C            8.33172595441672       17.85925517362395        8.07803428472166
H            7.88862087574834       17.40354339553970        7.19992337668111
C            2.58233269215523       18.84292926605283       10.26482413144144
C            2.01744063130555       18.06400895413234        9.24702080461179
H            1.99627890249382       16.98301572065044        9.34941806047121
C            1.48357124411904       18.66196496802464        8.11839293889444
H            1.04161972441816       18.04751818313757        7.34207108146250
C            1.52156070581324       20.04434205916996        7.98186218727078
H            1.10831232590312       20.51276633350506        7.09646745094984
C            2.09483363403438       20.82301545984039        8.97718384757121
H            2.13079837592059       21.90092728141649        8.87020897405293
C            2.62593587204614       20.22916673310721       10.11308996951954
H            3.07344148557048       20.84469905109911       10.88508891554560
C            3.91326261145140       19.20019165442370       12.84531742449941
C            3.04096630439182       20.01145421395264       13.57714317144035
H            1.97036392761629       19.92232979765941       13.42983459858520
C            3.53924324180666       20.92430901950246       14.49367013058775
H            2.85497907263142       21.55134478560029       15.05333197498437
C            4.90944733910179       21.03738108623325       14.69509843339156
H            5.29438132517768       21.75074430048837       15.41422580663663
C            5.78388269354621       20.23309012122331       13.97736036928605
H            6.85359659583592       20.31399924480007       14.13341341751006
C            5.28833373728586       19.31980516687804       13.06021552641592
H            5.97131392675938       18.68727376174686       12.50231379795785
C            1.60690842788713        9.56809711283350       12.86982740718354
C            0.23334043900431        9.37440010227898       12.70121910831321
H           -0.29707809466319        8.66964281191356       13.33038622214645
C           -0.46128155323366       10.08769127244179       11.73458842104813
H           -1.52474332185476        9.92057380039899       11.60773435200398
C            0.18465854404592       11.02483941460358       10.94003512870481
H           -0.37878459937765       11.59702123664344       10.21252062508977
C            1.55747224218605       11.23165006769430       11.08381466124179
C            2.24685243208433       10.48242788516350       12.03572102533175
H            3.31431575425692       10.63667953474091       12.14544735603437
C            6.64863469381401       11.88420485313111       17.29993131643647
C            7.94340438744591       11.71208718398190       17.79589692590888
H            8.20331428967088       10.80874890205909       18.33473440749785
C            8.90611293878596       12.69155296257968       17.59561626673678
H            9.90367215911568       12.55009356945524       17.99542543671794
C            8.61272020481935       13.84247002314396       16.87729290271860
H            9.38456155932166       14.58295275708731       16.70373744706093
C            7.32562730088861       14.03931050539111       16.37376771743149
C            6.36196352871195       13.06170602052207       16.61272182202561
H            5.36045263802241       13.21451254524650       16.22748414443343
C            8.23322768995113       12.42673766817032       11.30097048333154
C            9.62330777292782       12.55251933164526       11.32386496354519
H           10.23335793912558       11.77211486781280       11.76317590888863
C           10.22450312385476       13.68345764168714       10.78886044365383
H           11.30504176999836       13.76933847565028       10.79638637281369
C            9.45985539716616       14.71307355312717       10.25842461628612
H            9.94956143982611       15.59987741898507        9.87411180004399
C            8.06673326527005       14.61235834774067       10.22632923424668
C            7.48199712895514       13.45387260869549       10.73335866872089
H            6.40274777362142       13.35606522657303       10.70912432634244
C            1.10370039881474       15.59529802447620       14.15587892206833
C           -0.21546903067626       15.87115061046468       13.79312455129616
H           -1.03239946842931       15.33688231393442       14.26359161570058
C           -0.48104312030608       16.82858079610332       12.82375342981240
H           -1.50822904625849       17.04991081756809       12.55752160964114
C            0.55198291989793       17.49362067663128       12.17857824993490
H            0.32222586221813       18.21489501245540       11.40342796112279
C            1.88154048228592       17.23010207842801       12.51841096103466
C            2.12841565549985       16.29664707781996       13.52279535563365
H            3.15373449934397       16.08834057716720       13.80674704274507
