108
 energy: -192.427240609649 gnorm: 0.000037795810 xtb: 6.5.1 (579679a)
Au           0.45733089927054        3.98169945707304        9.20948026810308
Au           0.62555893834154        5.38961259293598       13.11344549582658
Au          -1.26508689771986        4.66475125816568       15.45592109768142
Au           0.36636100193788        7.22928468597643       15.37401462289537
Au           1.68104965627676        8.28819432368750       12.71313464243384
Au           1.38189144669378        6.41977429979540       10.38400199322126
S           -1.79362959976297        3.94742688640441        9.81479794149581
S           -1.30377971356153        6.27410031733724       11.70425292823611
S            0.77463375203874        2.84088321131007       13.01397698367023
S            0.27578057099844        2.99086090957606       15.99543388338939
S           -3.16052911064735        5.97716237384599       15.15296663167601
S           -1.55992404533003        8.57190188089333       15.42436746509462
S            2.24568436677052        5.76325279842494       15.26715260450017
S            3.79641883411306        7.74649682362187       13.60372945474648
S           -0.16576731459411        9.42930530208822       11.83629132498726
S            0.28897365614631        8.13590624539990        9.12386627025286
S            3.11663033602833        5.03882953803407       11.31592794827683
S            2.67254929855811        3.34962365241644        8.84396832585045
C           -2.15767573502713        4.96479064478427       11.08537517855825
C           -3.47851534982946        4.76003057700207       11.72052944783250
C           -4.38638990942060        5.82035951913022       11.74433934846457
C           -5.60121755805813        5.70314011696827       12.39741227210470
C           -5.91453651561475        4.52068972266095       13.05294225383413
C           -5.01545607584882        3.46462317593973       13.03864688266476
C           -3.79623872967912        3.56046603597264       12.37368729220868
C            0.94472466265796        2.35371936371176       14.60226518075370
C            1.79318076855019        1.15794734754249       14.78818379722957
C            2.87050192129081        1.13825945460248       15.68668633560959
C            3.65682011480004       -0.00877834323810       15.76390515148946
C            3.38540878011966       -1.12328374794722       14.98483628856856
C            2.32133817145940       -1.09970879142160       14.09351123057801
C            1.54097949485810        0.03850697170159       13.99055581674726
C           -2.90525041280330        7.62216457575249       15.16048895431014
C           -4.16818386900999        8.36459234197958       14.92211533735712
C           -5.21047880206140        8.21718889668792       15.83768010574976
C           -6.42130804762157        8.85983170312162       15.63787690207558
C           -6.60635362061743        9.64029829078591       14.50529029578206
C           -5.58022953923983        9.77212165587355       13.58130968102371
C           -4.35286404410725        9.14512677897240       13.77399892425402
C            3.66331188935334        6.45709722648342       14.63371598433512
C            4.88627339786766        5.78532195751857       15.09627441299654
C            4.91554962055738        5.33737906654644       16.42648516538512
C            5.99863704775153        4.64789329925406       16.93693734363453
C            7.08188893465085        4.37123102440952       16.11306131665870
C            7.07267176862756        4.81325607317408       14.80055873031663
C            6.00304468498317        5.53503362230740       14.27286806298702
C           -0.44286283986650        9.16327821871981       10.20587271004760
C           -1.51464410678538       10.03109310618009        9.67108542653232
C           -1.43347542792080       11.40590418061869        9.90934428609358
C           -2.41603624296293       12.26743067275982        9.45311493094891
C           -3.50898038151695       11.75781211079088        8.76600178364175
C           -3.60785652741986       10.39264601639331        8.54275882146282
C           -2.62162617197734        9.51308863115992        8.98067542335879
C            3.49783169676981        3.83909657704172       10.21053655180255
C            4.80934630199021        3.19421462662507       10.41944743073787
C            5.20250698263985        2.64544153638510       11.65010112775794
C            6.47945993880039        2.10259017209475       11.76409786009878
C            7.36082447654048        2.09801816425227       10.69362038312012
C            6.96263742329292        2.62144583961683        9.47119713146445
C            5.69357325673596        3.15693158379518        9.33684185634000
H           -4.12743134911469        6.74312112172757       11.23836619322630
H           -6.29355767135445        6.53710630165793       12.40514838687709
H           -6.85644808720351        4.42204259695279       13.58032389157572
H           -5.26156030665018        2.54591854191647       13.56044994525148
H            4.49889257791113       -0.02606175753272       16.44783950835993
H            4.00903078195119       -2.00613175173110       15.06787330568177
H            2.10562238298536       -1.96242113876192       13.47396186562965
H           -5.05815194128409        7.59282235696880       16.71096193855666
H           -7.22081772152493        8.74334281085224       16.36031053887520
H           -7.55337765312280       10.14026416897961       14.33658231861574
H           -5.73426603053174       10.36990917894016       12.68921463527234
H            4.06754992243693        5.55602568968129       17.06530652843271
H            5.99634733429261        4.32437869274779       17.97110297681998
H            7.93286340120546        3.81817993914572       16.49360632292630
H            7.92259086193173        4.59774444412707       14.16172405449643
H           -0.57929724593488       11.79035977296588       10.45564082446994
H           -2.33248205568619       13.33179093623836        9.63961001658239
H           -4.28830672730076       12.42186547424896        8.40976695515349
H           -4.47181959107270        9.99797090560093        8.01857929206978
H            6.78655814318784        1.67439903746028       12.71256364195652
H            8.35327689091014        1.67801915991562       10.81115259962746
H            7.63828728193880        2.61192095763835        8.62384954136780
C           -2.84401278640072        2.39601062167464       12.39140532010950
H           -2.82217759189075        1.91612859688033       11.41145467356130
H           -1.82709879386089        2.72096611670405       12.62142193696527
H           -3.15242583911998        1.65881962712599       13.13243033288854
H            0.71605863244860        0.07611010219032       13.28757405308149
C            3.21937216489742        2.32535504532955       16.54156181594089
H            3.05005832793423        3.26109347491770       16.00611158839122
H            2.59387711019165        2.33900495701017       17.43580516194886
H            4.26387081195078        2.28050158089578       16.85145559247514
C            6.09848664253594        5.98356394370081       12.84426688711993
H            5.15181658352276        5.83773543058647       12.31849653904796
H            6.34121943079098        7.04590584839172       12.80019073853026
H            6.87714860384696        5.42694368285135       12.32192768748500
C           -3.26542533421091        9.28930278350049       12.74954433390251
H           -2.49347021979992        9.97083348139393       13.11108341089625
H           -2.78326683361675        8.32940490293931       12.55191139325996
H           -3.66162775084893        9.68387151525057       11.81427800758276
H            5.37188752731235        3.57115292577242        8.38770178707576
C            4.28051119504509        2.59072493501586       12.83493025248858
H            4.30252609214350        3.53604212941010       13.37935179138610
H            3.24893814910503        2.41328427750786       12.52541958904232
H            4.58604493001059        1.79807332995036       13.51813250873909
C           -2.78787458544055        8.03947931474655        8.73221416786169
H           -2.46347198035112        7.46231251575216        9.59873055449805
H           -3.82970047136190        7.80195758421230        8.51681779859069
H           -2.17886705550694        7.73035771269080        7.88122412607427
