210
 energy: -315.681108248319 gnorm: 0.000047658523 xtb: 6.5.1 (579679a)
Au          17.10866636993927        3.46869383886015        4.96470022175884
Au          19.60940507829877        4.86578287403344        5.02984738459926
Au          18.13939510711305        4.74568898945162        7.25097360484746
Au          17.02920802713361        6.07082016945964        5.00575183542900
Au          20.75606791248593        3.70768596095834        7.28269771569118
Au          20.38305086543853        6.36756577807441        7.26515236654638
P           17.09121853234900        1.11448549977611        4.56053857736130
P           20.51744548430987        4.81232141078859        2.82847689068724
P           16.95846516809912        4.55709029178361        9.31654496978554
P           16.90427036095067        8.39333063076676        4.45719581599578
P           22.44738411179807        2.15638823256404        7.88111886183162
P           21.40041350474398        8.26214143283334        8.24746211624487
C           15.65242824745796        0.65222156303593        3.55153785170997
C           15.29903055285169        1.52968776579550        2.52009439317906
C           14.22225224239668        1.25139837767094        1.69426600954005
C           13.47253704142285        0.10023133716934        1.89702505434108
C           13.80214058400284       -0.76635119772501        2.92985220520817
C           14.88471088207630       -0.49549456041132        3.75330489644308
C           17.04308003712887        0.06830282215596        6.04639607637556
C           16.79522747458998        0.67401552788084        7.27944739568925
C           16.74679270058350       -0.07695518713205        8.44338351168258
C           16.94128010517871       -1.45019651997377        8.38997432504586
C           17.19353064375363       -2.06597962751530        7.17013545980814
C           17.25064480523742       -1.31450973853220        6.00611149840317
C           18.50815866460970        0.44374853088044        3.62932987185649
C           19.66556206084984        0.06524061725670        4.31629204919987
C           20.76485370587680       -0.42110342946665        3.62717582895396
C           20.74148437272068       -0.50366281272270        2.24138998474834
C           19.60857013832321       -0.10199299105432        1.54793584629901
C           18.49875282759249        0.36597519677500        2.23542854759382
C           21.26701660954592        6.37647384861561        2.27629217462302
C           22.44915404350862        6.77525258725618        2.91112223558533
C           23.05657914128607        7.97551489152139        2.58000894596437
C           22.48239586336021        8.80450966683837        1.62344594243967
C           21.30334265246473        8.42420178916790        0.99900625971185
C           20.69760670761915        7.21784983217738        1.32006907371074
C           21.85645059450925        3.61281635350942        2.56392667166851
C           22.69194539939129        3.67555796897023        1.44342419887346
C           23.74450823090715        2.78556101293752        1.30356946399302
C           23.98839092886507        1.83155053929333        2.28312293021836
C           23.16533242417323        1.76012641411434        3.39786429575894
C           22.10142232934434        2.63862716089393        3.53271720216025
C           19.22887908536172        4.41839857940815        1.60941933113754
C           18.05774151944033        5.18418294202494        1.62426241384366
C           16.99961527199914        4.87986676573834        0.78456438222660
C           17.09184642013192        3.79621064862777       -0.08010752678469
C           18.24673656011213        3.02691366334240       -0.10159794204026
C           19.30902847627757        3.33200959116972        0.73757541393178
C           16.37376189225162        6.13254421623612       10.00944083876753
C           15.16848438192117        6.25770519850728       10.70395110596662
C           14.76875449773615        7.49052147961380       11.19702417026995
C           15.56494122393828        8.61170274831556       11.00727407606286
C           16.76423336729292        8.49933772163793       10.31491476175214
C           17.16033077013612        7.27137716554113        9.81147696831622
C           15.51114498934105        3.45554805758627        9.34762641686944
C           14.67935484783690        3.42361705069121        8.22435675694754
C           13.57686649167733        2.58530649673373        8.18567442044467
C           13.29250350553903        1.76292460552296        9.26783385139568
C           14.11137730913706        1.78556334594727       10.38856744021003
C           15.21510976206481        2.62457787662867       10.43164108233337
C           18.06266729882493        3.86795795613493       10.58864035829818
C           18.27745745102207        4.46255430698972       11.83237106652301
C           19.16789683409896        3.89727651733041       12.73495038636642
C           19.85259846882853        2.73552361531135       12.40837422308031
C           19.64895044245614        2.13710900529374       11.17117711463241
C           18.76699912895955        2.70291404499730       10.26646636271181
C           18.43296305678009        9.37865008446112        4.60371015202947
C           19.66571596189038        8.72441470506991        4.57644412729905
C           20.84874454648215        9.43645157362068        4.68976123721285
C           20.81798272506024       10.81721021287239        4.82653597689744
C           19.59914259475340       11.48077106591148        4.85154337177315
C           18.41449888535582       10.76897695043600        4.74204319493380
C           16.45791398472718        8.56950346877065        2.70597400801535
C           17.38274017217754        8.96567371579196        1.73692182223931
C           17.03816942738926        8.95720366812987        0.39357145357328
C           15.77206553958429        8.54789920500598       -0.00061845708426
C           14.84719076897409        8.14344183251665        0.95424834721435
C           15.18858096933397        8.14612782524147        2.29700912905224
C           15.68329328446521        9.35879810198642        5.39320429974255
C           15.52777246542471        9.05034909626328        6.74838076669502
C           14.63922178338770        9.76464260108716        7.53590886912136
C           13.88752835396610       10.79051540969366        6.97743395878175
C           14.02648292088086       11.09734917663139        5.63084148419566
C           14.91926765093707       10.38904576708338        4.84032842262161
C           22.82180388646874        2.13995854153990        9.65995205262851
C           22.90721247465583        3.37685951727812       10.30712056839998
C           23.20727829914787        3.44398496136396       11.65696921871165
C           23.40980741263853        2.27732247843225       12.38398258260844
C           23.31301103638576        1.04457356228059       11.75379314274757
C           23.02280096332268        0.97267607496643       10.39895924437522
C           22.19980312407387        0.41261952024173        7.43364182775246
C           23.13470033901022       -0.34946626533456        6.73130772447056
C           22.85962758096506       -1.67003773748733        6.40499127756169
C           21.65156684721182       -2.24511169191061        6.77472650632495
C           20.71070049125816       -1.49266065763582        7.46624379670653
C           20.97720284227220       -0.17102673448673        7.78495752561949
C           24.03146612622312        2.65292070958102        7.14081025257636
C           25.25380102457217        2.13849697291169        7.58551983317591
C           26.44065222721668        2.54778541614180        6.99845434336713
C           26.42764995658185        3.47723477733659        5.96639756106823
C           25.22161322186421        4.00399353882259        5.52547847502492
C           24.03381701957662        3.59650261666162        6.11176749071686
C           22.87384500326145        8.80859838182623        7.33593041208022
C           23.23674619039850       10.14333476638657        7.14749090865393
C           24.35688491097807       10.46454634032508        6.39448516083277
C           25.12593343401024        9.46233812403828        5.81963479203295
C           24.77282570653024        8.13055464081377        5.99864518049403
C           23.65297528212241        7.80703086747598        6.74636290623392
C           22.01651282443769        7.82022499216860        9.90038523257315
C           23.23109747698038        8.27743715453513       10.41522973743290
C           23.62493443802558        7.92207953301342       11.69672842151675
C           22.81431203286990        7.11050313024154       12.47856199517509
C           21.60844557810061        6.64221973395488       11.97113908951859
C           21.21534968664813        6.98982935166927       10.68944756833440
C           20.38225950586607        9.73447706905811        8.55931113658628
C           20.79035631631188       10.76424643330495        9.41280719650927
C           19.97224038614765       11.86316208616583        9.62208534837212
C           18.73580137925011       11.94552831839681        8.99459755693586
C           18.31307087957117       10.91909290257822        8.16108812975688
C           19.13092430370512        9.81984693587929        7.94712663069144
H           20.97267250975783        6.00335031213600       12.57362500877035
H           20.27551132611640        6.61762328704216       10.29331549609469
H           21.74508129347548       10.69803122847494        9.92237904811073
H           20.29981304332055       12.65767597214859       10.28228378023240
H           18.09843030517066       12.80573985459074        9.16166909515596
H           17.34499412016915       10.97091143285140        7.67585362739993
H           18.79861450796179        9.01564611123150        7.29880239509255
H           15.87220988816381        2.44003076528263        2.37181491269017
H           13.96454204442469        1.93786108168272        0.89586903016708
H           12.62717270384417       -0.11677831692029        1.25488490427632
H           13.21353022091668       -1.66084296006725        3.09730160986508
H           15.12835866023965       -1.17897665531312        4.55835649187759
H           16.63815539040776        1.74678259502315        7.32221865403474
H           16.55108739156667        0.41065810955361        9.39186396090474
H           16.89807202568162       -2.04073567050744        9.29747954878793
H           17.34271797718690       -3.13844710283401        7.12399582213778
H           17.46681343807658       -1.80142963816157        5.06204511560029
H           19.69768627648180        0.13428289894073        5.39855301109566
H           21.64231464759273       -0.74178183919551        4.17693399199140
H           21.60417719735786       -0.88069327116260        1.70499429980938
H           19.58192657014736       -0.16502078636467        0.46620898328151
H           17.61464034177358        0.66297364317540        1.68274062739191
H           22.89589764956713        6.13417379341056        3.66488005074209
H           23.97853353732839        8.26529870975333        3.07150007585657
H           22.95483479142746        9.74534060669477        1.36733566986140
H           20.85237508265434        9.06648115624692        0.25143062063970
H           19.78270866932717        6.92843518021153        0.81618895411420
H           22.51860804141088        4.43080311805438        0.68517288637917
H           24.38362485105486        2.84289844692484        0.43029559479517
H           24.82135069126773        1.14635647837755        2.17922598632986
H           23.35545938584897        1.02355611054636        4.17003467909186
H           21.45313358604748        2.57189580343478        4.40077493105156
H           17.97545434080500        6.02445192285116        2.30643654290126
H           16.10221717956841        5.48790972497361        0.80820488414776
H           16.26351158700452        3.55203605643397       -0.73456692252124
H           18.32329645155849        2.18134777588170       -0.77528069258399
H           20.20211080913103        2.71805224551135        0.71788388953078
H           14.54183426791817        5.38701528215027       10.85898475308308
H           13.83116117724293        7.57450167767098       11.73394412751472
H           15.25364105226247        9.57286872522949       11.39890077104832
H           17.38834611260347        9.37190382244368       10.16064777929780
H           18.09203809998402        7.18904076806157        9.25931470054999
H           14.90267153682078        4.06176431891392        7.37532866347106
H           12.94191771209710        2.57096302195467        7.30741202967330
H           12.43355178490452        1.10317777426500        9.23660789341440
H           13.89169558311776        1.14625176229666       11.23562610231866
H           15.85046614487837        2.63470288110464       11.30974153461159
H           17.74476865359996        5.36828704887145       12.09798955794103
H           19.31873942828832        4.36314064907789       13.70189463010370
H           20.54751622660852        2.29623858804246       13.11436940373536
H           20.18195924798199        1.22984548687864       10.90998863141425
H           18.61420995567144        2.23624424481424        9.29807796003006
H           19.69604615966067        7.64620599992059        4.45935709100545
H           21.79559568975392        8.91038905134911        4.66781036108039
H           21.74402755757082       11.37302360304059        4.91496155870961
H           19.56922365995223       12.55874236217224        4.95887877478132
H           17.46769405143888       11.29640419399285        4.76549835254510
H           18.37539532760875        9.28493150202808        2.03400691260272
H           17.76403430137892        9.27196552211173       -0.34742011595130
H           15.50541408413309        8.54189480422713       -1.05080123135585
H           13.85729413528340        7.82251769105116        0.65144260349525
H           14.46776991373618        7.81969219315923        3.03921105315429
H           16.10751917755055        8.24155164006321        7.18389242094275
H           14.53018335137355        9.51548576133206        8.58558606407827
H           13.18916769496315       11.34661858861514        7.59163191774901
H           13.43698819945468       11.89363965474367        5.19162725308875
H           15.01921194895529       10.63134479073844        3.78848614192982
H           22.73718005324714        4.28968542596650        9.74393257875730
H           23.27926177906412        4.40959697654829       12.14409734521070
H           23.64282597118260        2.33079037853819       13.44081043429052
H           23.46800984628749        0.13196547570639       12.31731640554406
H           22.95393321864027        0.00603921516354        9.91374640767037
H           24.08434939015592        0.08651634533607        6.44352718438675
H           23.59673876849350       -2.25255139624542        5.86481091934580
H           21.44112009711828       -3.27754815919919        6.52228817510797
H           19.76379406065102       -1.93452542534246        7.75406314100173
H           20.23486812246487        0.41731773202705        8.31538141168769
H           25.27292466283723        1.42239868786112        8.39953749038712
H           27.38140439595328        2.14072541833813        7.35021027292985
H           27.35779290065015        3.79477768436917        5.51014492318243
H           25.20307393708846        4.73394423191625        4.72376717261402
H           23.09337749564528        4.01377205751822        5.76792062006012
H           22.63988921765265       10.93473451956469        7.58571900170272
H           24.62860869741058       11.50455688851562        6.25646373916604
H           25.99891276768580        9.71756979087951        5.23074961941846
H           25.36892761387071        7.34240040327423        5.55260476029485
H           23.37193145335950        6.76613385649881        6.87621985917228
H           23.87054600139499        8.91027071113590        9.81048277974856
H           24.56883247494075        8.28427081734383       12.08706537882138
H           23.12061847217192        6.84274950148117       13.48287509316063
