205
 energy: -286.723104295785 gnorm: 0.000210447834 xtb: 6.5.1 (579679a)
Au           8.02268712900607        5.48474333963299        0.68861244038648
Au           7.55522516065585        8.35470328524670        1.27369228074296
Au           5.28829450960867        6.40159092567483        1.52938480261038
N           10.49284999850176        4.47621869125805        2.16090360292972
N            9.63251020015842        2.81911676469406        1.07984646699879
N            9.96586492864532        9.90432379431523        2.03028987994286
N            8.94825912996178        9.35432287082856        3.85582282253979
N            3.02585982429798        6.51374081673328        3.72547810100384
N            4.22105283747106        4.72238356100783        3.82732725157480
C            6.65175668363094        6.93422469899002        0.00001570875863
C            9.46340532010252        4.12309554851460        1.36942460793514
C           11.33718671859639        3.40166827562988        2.38761318148649
C           12.51513231997938        3.24374421419873        3.11262069083743
H           12.97009502484110        4.05701345488446        3.66152919866375
C           13.09892161197093        1.98868659343550        3.10815513778841
H           14.01664812712530        1.83064315118738        3.66204717928049
C           12.53554817885665        0.91863201699447        2.40653254005615
H           13.02753492567368       -0.04635064433726        2.43100092184578
C           11.36597819159240        1.06634353769981        1.68205254965030
H           10.93798213748332        0.23230168671299        1.14054173956378
C           10.77572554319644        2.32584761212690        1.68373814947790
C            8.75698723119869        2.00951135179965        0.23683923517679
H            9.16098802589350        0.99027177591799        0.25333845754616
C            8.78983334422754        2.52362067307509       -1.19874725141033
H            8.37847142919596        3.53017124189575       -1.25153634700760
H            8.19994409841109        1.86872137565940       -1.83867163949185
H            9.81684251798441        2.54379534716114       -1.56097152795744
C            7.34478097394060        1.97888882095506        0.81193868896876
H            7.37724755118091        1.64231672037547        1.84731701549066
H            6.72781225558556        1.29218964048089        0.23376034095472
H            6.89333051667020        2.96902414726244        0.77677168487763
C           10.66038540027569        5.82225097503172        2.69471793575977
H            9.80095664059146        6.39209467144535        2.31802051032235
C           11.93764672198174        6.46039362837125        2.15520240323028
H           12.82614399929558        5.96104872833963        2.53725620627004
H           11.97168173271556        7.50738683093087        2.45513104911183
H           11.94688848020875        6.40362350150253        1.06727507390063
C           10.60209169204721        5.80950607470474        4.21989151625966
H            9.69739055624797        5.29996903698237        4.55040415124740
H           10.58763495835649        6.83550881994402        4.58675688987826
H           11.46355688628672        5.30166360485645        4.64939890703794
C            8.78447388485433        9.48131877236311        2.52231282504312
C           10.90026110299066       10.05546800626962        3.04039864812549
C           12.24042216095723       10.43176690424374        3.05699287300140
H           12.77557608337363       10.69999661772852        2.15610119970491
C           12.87931886638694       10.44714809381535        4.28554831345176
H           13.92259877359559       10.73538864720313        4.33519313340066
C           12.21402927810263       10.09684800589572        5.46387126282164
H           12.75459045754851       10.12114491374259        6.40251874234736
C           10.88323664118376        9.71543467489647        5.45645598860057
H           10.37793319217070        9.43865447973183        6.37301707358694
C           10.23590325734497        9.70106846410650        4.22547031414918
C            7.86447323319860        9.14935560434138        4.81602367446087
H            8.30402367230126        9.26855040644437        5.81361705063712
C            7.27794261119750        7.74559962891935        4.71253228907606
H            6.77542820737880        7.60489555290905        3.75776244174754
H            6.55420891995544        7.59392882001005        5.51261636477677
H            8.06597521193538        7.00017258547470        4.80383860497527
C            6.80923323178909       10.23394058197760        4.60948411045186
H            7.26384479041499       11.21911508849611        4.70715497904607
H            6.02405308548395       10.13136967707004        5.35722600573372
H            6.36802588593215       10.15070551728681        3.61700557229985
C           10.12437160695262       10.30775469558901        0.63812637526944
H            9.14660521140797       10.12268569216366        0.17426991338463
C           11.15998884068131        9.44183745723822       -0.07196592615952
H           12.15974318670037        9.60245515035635        0.32696690408750
H           11.16478918834648        9.68095768970840       -1.13508683325660
H           10.89723076409639        8.39170798098284        0.04768771029318
C           10.42880699058859       11.80135001082708        0.55264699704852
H            9.66572136705788       12.36447519469212        1.08894541427682
H           10.42656084336467       12.11149347503120       -0.49159608619638
H           11.40178613525118       12.03455371224207        0.98083099105936
C            4.01845779916463        5.84340265975847        3.11062245642775
C            2.59916981701342        5.83601204447192        4.85415259511527
C            1.63042968710378        6.12621525985292        5.80931318329782
H            1.02558522565600        7.02270202125226        5.75993023877419
C            1.47123586158754        5.21705327595206        6.84012061712178
H            0.72806485835412        5.40580402408746        7.60556675362038
C            2.25433559131192        4.06160917613385        6.92090181339247
H            2.10393880683180        3.38014917665575        7.74974928522033
C            3.21838886667709        3.76818358689684        5.97204137710035
H            3.81930020423391        2.87342010538146        6.06102651403471
C            3.37772722070862        4.67150547027030        4.92470896548689
C            5.19163974377026        3.70574319778259        3.44565999526491
H            5.58963553525092        4.03946614057975        2.47851365240828
C            4.50616585153114        2.35620645257573        3.24798991125203
H            4.17314461666453        1.93080395843064        4.19228367686368
H            5.20297491352578        1.65919431486328        2.78506441383024
H            3.64188451032736        2.47517191568816        2.59522837113782
C            6.34062120132860        3.66008737473892        4.44968818443585
H            6.78898156887476        4.64955195805099        4.53829359787724
H            7.10021658577116        2.96077813178006        4.10166765903219
H            5.99577700161373        3.34265158859116        5.43222391915542
C            2.50673372428417        7.82369802844387        3.34341452386579
H            1.62305562052247        8.00433976853049        3.96720902193171
C            2.07246958249102        7.84029002508430        1.88201414650153
H            2.92571860714478        7.70094403228464        1.22078895078099
H            1.60784857128375        8.79850760953117        1.65222530770438
H            1.35158809653415        7.04449336739885        1.69946534053552
C            3.55556148201630        8.88636362657673        3.65839411537066
H            3.85358264178675        8.81393364001778        4.70372625625492
H            3.14483351921768        9.87816782893309        3.47651815778098
H            4.43555731764903        8.74423167303152        3.03301359664171
Au           5.28074217834265        8.38378309099110       -0.68825104183124
Au           5.74826958905125        5.51401405665889       -1.27394126461702
Au           8.01482324690762        7.46705507343289       -1.52963088965235
N            2.81066700365050        9.39223377769794       -2.16092010127598
N            3.67101177728491       11.04933180514266       -1.07986890233500
N            3.33762352519213        3.96413001518464       -2.03028504268988
N            4.35523571472209        4.51411507668251       -3.85581749123839
N           10.27765304760528        7.35471424804538       -3.72546231658561
N            9.08246317480534        9.14607400827019       -3.82731565503038
C            3.84013161922237        9.74536002251382       -1.36946569045919
C            1.96632982551290       10.46678609136929       -2.38762679660892
C            0.78837813300233       10.62471519721283       -3.11262508123468
H            0.33341138722433        9.81144954060453       -3.66153508374260
C            0.20459337305264       11.87977607672953       -3.10815974601220
H           -0.71313169837095       12.03782531363827       -3.66205303559451
C            0.76797006294592       12.94982770024242       -2.40653539333287
H            0.27598759569976       13.91481307516925       -2.43100394769064
C            1.93753942019429       12.80210878724659       -1.68205526685732
H            2.36553754213045       13.63614925375500       -1.14054351416761
C            2.52779440819993       11.54260449070429       -1.68375272984955
C            4.54652178631987       11.85893262049900       -0.23684539394601
H            4.14251873419331       12.87817276089718       -0.25333696321124
C            4.51367540120743       11.34480451706596        1.19873460190514
H            4.92503584239128       10.33825173344967        1.25152093167595
H            5.10356066982277       11.99970455276902        1.83866337181573
H            3.48666562706195       11.32463833861077        1.56095926638715
C            5.95872916713930       11.88955864376291       -0.81193782903507
H            5.92626522798643       12.22613865380464       -1.84731383100614
H            6.57569335390200       12.57625665575435       -0.23375254535940
H            6.41017747400020       10.89942240763916       -0.77677285934594
C            2.64310938093969        8.04620224072402       -2.69472385085824
H            3.50253894730977        7.47636239564681       -2.31802181811505
C            1.36584559401813        7.40807000642547       -2.15520246772471
H            0.47735143500287        7.90742023473235       -2.53725690737679
H            1.33180342509612        6.36107652190319       -2.45512946439307
H            1.35660483170974        7.46484275786812       -1.06727526158481
C            2.70140601652059        8.05895040721121       -4.21989620308771
H            3.60610959115668        8.56848526329235       -4.55040661169378
H            2.71586033537279        7.03294748213763       -4.58676036831504
H            1.83994273355804        8.56679613038735       -4.64940383805960
C            4.51902091527305        4.38712259588358       -2.52230854576743
C            2.40322897328536        3.81298547641859       -3.04039580362421
C            1.06306700839824        3.43669194008264       -3.05699191508237
H            0.52791126010535        3.16846403280991       -2.15610090625650
C            0.42417257453662        3.42131110840418       -4.28554856235838
H           -0.61910747298716        3.13307158997510       -4.33519478425138
C            1.08946402220389        3.77161080867630       -5.46387032017682
H            0.54890477045638        3.74731340227670       -6.40251894358805
C            2.42025728411013        4.15302153364937       -5.45645290368103
H            2.92556254089330        4.42980142392869       -6.37301328242684
C            3.06758954811853        4.16737983909572       -4.22546686110902
C            5.43902535801021        4.71909555066220       -4.81600965760569
H            4.99947840784587        4.59990595214455       -5.81360650111660
C            6.02555813149915        6.12285213850881       -4.71247773143007
H            6.52807471873753        6.26357349378701       -3.75770482567064
H            6.74928799339112        6.27452286497926       -5.51256585330921
H            5.23752398397374        6.86827531840782       -4.80380498009903
C            6.49426525450964        3.63451046282052       -4.60947637621882
H            6.03965275204370        2.64933729140629       -4.70715503388292
H            7.27944602889770        3.73708669478120       -5.35721699331214
H            6.93547025634682        3.71773977954136       -3.61699575298667
C            3.17910780231110        3.56069749384087       -0.63812478274334
H            4.15687625974463        3.74576886974847       -0.17427418406887
C            2.14349676938489        4.42661953596393        0.07196733518004
H            1.14374260371553        4.26599974499637       -0.32696374101191
H            2.13870028078387        4.18750178702662        1.13508897425738
H            2.40625543066841        5.47674803652314       -0.04769256354515
C            2.87468037711697        2.06710213414338       -0.55264570844462
H            3.63776880066384        1.50398067768001       -1.08894435785913
H            2.87692872835505        1.75696108232006        0.49159794254778
H            1.90170188513670        1.83389783025954       -0.98082996894900
C            9.28507417610603        8.02507418928088       -3.11059285327818
C           10.70433843742921        8.03243851005051       -4.85414308004042
C           11.67306932196573        7.74222914492780       -5.80931179135522
H           12.27791455832040        6.84574314401894       -5.75992813095124
C           11.83226320195945        8.65139173874141       -6.84011953546501
H           12.57543465275591        8.46264168761766       -7.60556537215476
C           11.04916406375644        9.80683634401595       -6.92090080670143
H           11.19956113854123       10.48829661891461       -7.74974815721011
C           10.08511170956180       10.10026196115378       -5.97204000819092
H            9.48420070814781       10.99502585481989       -6.06102492802977
C            9.92578314949776        9.19694646229598       -4.92470049785472
C            8.11185861821315       10.16270125754562       -3.44565307914929
H            7.71385870198573        9.82898754492075       -2.47850512000050
C            8.79733088682369       11.51224072606527       -3.24798994933446
H            9.13035305212923       11.93764191472715       -4.19228424556221
H            8.10052209683037       12.20925452418049       -2.78506676081033
H            9.66161272904410       11.39327922222947       -2.59522791850196
C            6.96287940834631       10.20836154141180       -4.44968663860375
H            6.51451802958106        9.21889810248058       -4.53829719027592
H            6.20328168893253       10.90767040460476       -4.10166982011348
H            7.30772571844412       10.52579881131465       -5.43222131664124
C           10.79677314797075        6.04474864494936       -3.34341319232597
H           11.68044436606680        5.86410709390856       -3.96721602044170
C           11.23107051153401        6.02814334810633       -1.88202465932351
H           10.37782356555199        6.16749703169699       -1.22080369561174
H           11.69568066386769        5.06992108474927       -1.65223560198355
H           11.95194696598739        6.82394305544107       -1.69947368604790
C            9.74794327045516        4.98208439425010       -3.65839473024737
H            9.44991869774972        5.05451848276841       -4.70372557184405
H           10.15866942337278        3.99027888768201       -3.47652334992541
H            8.86794776406647        5.12421005708299       -3.03301375102399
