179
 energy: -270.186900075944 gnorm: 0.000049060137 xtb: 6.5.1 (579679a)
Au          24.43732567013833        0.62899531602889       15.94440356153554
Au          24.56917847182287       -1.31770426511707       18.46895505487326
Au          24.31997167855296       -2.90305343937672       15.94683880504834
Se          24.60690462777529       -1.14592004782932       14.27743945345822
P           23.50387122170965       -4.40427867481377       17.56148873674494
P           22.27993157249722       -1.83664235822350       18.42394434369296
P           24.44786534425101        2.62998494950001       17.16520266541068
N           22.17522131678876       -3.56484651505355       18.30559723030186
N           25.81495702300132        3.52722858737636       16.58422939126316
C           20.92411486215511       -4.26392226650102       18.69265173775391
H           20.69341051296695       -5.01539910096389       17.93301959621746
H           20.11260031460037       -3.53170182569619       18.69782090806301
C           21.05815658925435       -4.91998056183841       20.06466445419452
H           21.88122192518373       -5.64086280078416       20.04118009275615
H           21.30234380284348       -4.15699908773280       20.81004229811529
C           19.76170518894758       -5.62667363331478       20.45178460551149
H           19.87047533968163       -6.09302075472015       21.43022828173806
H           19.51577851624360       -6.39967953407667       19.72304144393729
H           18.93740992419130       -4.91415290394182       20.49553083089212
C           22.79944750692258       -5.99306578739162       17.04062249086412
C           22.92296861417639       -7.16837291973405       17.78658365994117
H           23.44677379342801       -7.15575035095109       18.73525157773555
C           22.37765054184112       -8.35327484329252       17.31698028151307
H           22.47774790759329       -9.25826056446398       17.90468689651690
C           21.70624409587379       -8.38216434741700       16.10240820811221
H           21.28093443168709       -9.31039847673056       15.73973356414264
C           21.58338803664580       -7.22133274723778       15.34934344540858
H           21.06219521927751       -7.23982111236042       14.39938691782790
C           22.13198475351230       -6.03596306527960       15.81118072305456
H           22.04348870618334       -5.13079351454329       15.21940973983119
C           24.64775275167435       -4.81035374044303       18.91914081899431
C           24.53349140092731       -4.28115091071845       20.20409521970305
H           23.67014420561857       -3.68056694139094       20.46188495666749
C           25.50908355301487       -4.52839064668890       21.15880695382070
H           25.40226606806377       -4.11243403152428       22.15383162994902
C           26.61541414791215       -5.30301423322337       20.84179341346041
H           27.37689108510555       -5.49582781456208       21.58800151847372
C           26.74468836268661       -5.83160283424329       19.56358523824673
H           27.60387593102993       -6.44130974705598       19.30855243196060
C           25.77397573710116       -5.58043596683876       18.60707144913328
H           25.87958336074554       -5.99777554879471       17.61103370818992
C           21.34880983332767       -1.21216130325538       16.98890795937001
C           20.91466692811116       -2.03000626441022       15.94576679483148
H           21.03242462015974       -3.10460505030868       16.01921548107558
C           20.32329154648973       -1.47887869640696       14.81829115514228
H           19.98793906115388       -2.12793483861490       14.01778673494084
C           20.16287141370765       -0.10469229494019       14.71440961447396
H           19.70210071164773        0.32402247693249       13.83248797379101
C           20.59376618069643        0.72122315065498       15.74501463279109
H           20.46811294539545        1.79559434900157       15.67383283738467
C           21.18800803775947        0.17287178367416       16.87026183325647
H           21.51874916856076        0.82143903871614       17.67481507635695
C           21.25282173233168       -1.41577619892407       19.86121006046780
C           21.86051734050587       -1.40526513876952       21.12112970291869
H           22.91568539442915       -1.64170134764371       21.20787968013141
C           21.12679364871253       -1.09489689737475       22.25469871268945
H           21.60835655523030       -1.09731677099558       23.22552880462405
C           19.77885675594333       -0.77848362617649       22.14332804355021
H           19.20506803600477       -0.53322827803958       23.02913388890699
C           19.16939556257989       -0.77024536351442       20.89622428635841
H           18.11939163379847       -0.51782467826035       20.80569654752326
C           19.89849642249755       -1.08457919135313       19.75967475710326
H           19.41571998534173       -1.06970365619279       18.78934215298314
C           23.05436159207910        3.78327574719442       17.01037980064451
C           22.38220835563451        3.83662710973614       15.78460757950790
H           22.70386745111603        3.19641453286487       14.97001098254005
C           21.31259429569342        4.69875093836296       15.60513858434172
H           20.80492719514486        4.73554895334000       14.64840983104075
C           20.89217161194781        5.50965734303535       16.65172265528300
H           20.05402608823725        6.18214558212947       16.51274360381666
C           21.54220883144179        5.45348051924664       17.87686171008538
H           21.21275216330347        6.08110393329493       18.69659688640545
C           22.61618805172758        4.59589004841062       18.05982828595815
H           23.11502479233860        4.55488245551282       19.02123192542668
C           24.72073718749724        2.45531320770316       18.95689006532989
C           25.91744854943198        2.79971684677854       19.58527789292171
H           26.69891290291667        3.29489828344561       19.02125395571253
C           26.11113266804941        2.52244752935646       20.93077152090397
H           27.04514522824609        2.79921648188374       21.40570241860030
C           25.11602556790652        1.89322701295632       21.66475642046715
H           25.26969691014117        1.67615906357809       22.71507234816207
C           23.92082098835366        1.54203192145911       21.04978782268382
H           23.13677680127361        1.05358989856168       21.61708148827087
C           23.72710659723658        1.81438728360856       19.70524204198256
H           22.79122916644645        1.54003861495580       19.22949157612682
P           27.15833335101094        2.62471351281400       15.94699821703644
C           28.56969217366530        3.75783037139688       16.06910508464777
C           29.25714277358825        3.81239120337313       17.28694823403977
H           28.92432180479596        3.19721112093883       18.11648513223184
C           30.35341788977679        4.64566205859263       17.43919194690942
H           30.87279322334184        4.68470177009995       18.38952860020142
C           30.78566435728477        5.42475174381843       16.37340705863092
H           31.64532908656166        6.07377503022330       16.49085040785079
C           30.11921101684538        5.36767838659100       15.15705781316814
H           30.45716456858684        5.97142871767720       14.32298239449166
C           29.01818943922041        4.53987178242507       15.00121209697288
H           28.50547679087847        4.49935157837272       14.04725386504916
C           26.83827976528030        2.45148080741511       14.16371289810283
C           25.62809629205167        2.78741800355115       13.55843735601272
H           24.85760014539182        3.28157986795232       14.13717735920908
C           25.40843687529386        2.50516530091412       12.21788893912096
H           24.46375271848399        2.77646861098480       11.76128594989275
C           26.39129142496780        1.87791523451671       11.46616885133706
H           26.21808819744482        1.65729912162491       10.41964545584941
C           27.59942645469913        1.53214627714551       12.05892513829868
H           28.37397761960375        1.04476512219499       11.47784738191328
C           27.81836873976759        1.80888591295505       13.39870519629683
H           28.76396597132499        1.53799486990324       13.85717762957241
Au          27.17719640513422        0.61044004888812       17.15090573835663
Au          27.01418837671350       -1.30988278242940       14.61932855576885
Au          27.25825158862767       -2.90611749888846       17.13751914930076
Se          26.97619697688469       -1.16167118459095       18.81995242415131
P           28.06732757332000       -4.40392262468473       15.51544260827241
P           29.30070818305028       -1.84019282630282       14.65242345994705
N           29.39758959390437       -3.56892127707494       14.76914011465493
C           30.64474348402524       -4.27277044144300       14.37798147508482
H           30.87377260398848       -5.02673836285104       15.13564520416984
H           31.45947690405642       -3.54412056699529       14.37249308984023
C           30.50493949798316       -4.92554153552346       13.00497556124597
H           29.67922158266230       -5.64335861863467       13.02896029688922
H           30.26184978769379       -4.16016136830029       12.26171222527378
C           31.79779951214997       -5.63633204878199       12.61336236583427
H           31.68489946953515       -6.10050616196542       11.63435362968054
H           32.04265474621875       -6.41155351241646       13.34010952505940
H           32.62461760845309       -4.92678552034124       12.56886765603196
C           28.76743772096973       -5.99515881471243       16.03471844478074
C           28.64135152640513       -7.16943238121282       15.28754116316557
H           28.11810225501851       -7.15457281388718       14.33859853633199
C           29.18332449234871       -8.35619609817238       15.75629961152032
H           29.08121523133981       -9.26034879212285       15.16765786605119
C           29.85394691557397       -8.38801799414333       16.97123612164144
H           30.27661392010478       -9.31771081594340       17.33326126653983
C           29.97940622309411       -7.22823318398659       17.72547510237526
H           30.50002647087304       -7.24897372504567       18.67569931057237
C           29.43415114404497       -6.04101391716028       17.26444510409076
H           29.52462586531139       -5.13664853649731       17.85714756646362
C           26.92042138594969       -4.80635094491812       14.15915899422798
C           27.03295145218936       -4.27455363945552       12.87512392704796
H           27.89618978044528       -3.67383017886180       12.61727564885837
C           26.05578743189682       -4.51924793843958       11.92139678347792
H           26.16131056979287       -4.10127750895504       10.92707658990571
C           24.94957030393438       -5.29402617031596       12.23846538611848
H           24.18689177401134       -5.48497057640170       11.49300341398934
C           24.82204004372690       -5.82526980585527       13.51573613484683
H           23.96301593993286       -6.43520994672453       13.77075729936052
C           25.79430456104218       -5.57653881706723       14.47132984615235
H           25.69009122356477       -5.99608972464320       15.46657997201684
C           30.24476801239478       -1.22190754487275       16.08144553819459
C           30.67611473430991       -2.04199626590910       17.12398073110497
H           30.54674766004365       -3.11547404155336       17.05353259942240
C           31.27928673949087       -1.49462199863593       18.24697401917854
H           31.61233552228025       -2.14533290215503       19.04709429587265
C           31.45451108992611       -0.12193296784222       18.34677056907827
H           31.92477474419587        0.30394860902530       19.22504972878181
C           31.02620288248733        0.70615974926204       17.31685251143984
H           31.16332216723480        1.77929963149555       17.38511636173114
C           30.41994539698404        0.16174609314380       16.19610439915296
H           30.09097696415246        0.81185039510001       15.39198569941061
C           30.31969591461848       -1.42241110766510       13.20855744886007
C           29.70196442389474       -1.40290603582143       11.95363310957807
H           28.64441990880968       -1.63131076699387       11.87467402287256
C           30.42870083822195       -1.09397288448946       10.81523028771720
H           29.93918771687991       -1.08910383223834        9.84839183483936
C           31.77985008573703       -0.78818075610221       10.91669303513061
H           32.34826718983992       -0.54409859701209       10.02710546071193
C           32.39948571422099       -0.78901766556793       12.15881241111190
H           33.45208154572464       -0.54487148808399       12.24163554905708
C           31.67727852185724       -1.10174629896937       13.30019018945710
H           32.16803059292933       -1.09370753140522       14.26659704826821
C           25.89056878437981        4.99384976300882       16.80260845481991
C           25.56647005229360        5.75892430823333       15.52184805252426
H           26.89527896336032        5.24575193330547       17.15201552271033
H           25.18377125123163        5.25768491011104       17.59355851408706
C           25.64169642060416        7.26462049995931       15.76112433355188
H           26.27638894842510        5.47122290957926       14.74024132335272
H           24.56336288412836        5.48632297660538       15.17995542498920
H           25.41158903523632        7.79929867215922       14.84035366156263
H           24.92559219690391        7.56536960575402       16.52650043317875
H           26.64198242669859        7.54972797111990       16.08861393998174
