300
 energy: -429.208449437237 gnorm: 0.000042399571 xtb: 6.5.1 (579679a)
Au          12.87609999539920       10.61765942027719       14.93209946234369
Au          15.31829915023979       11.04122237130729       13.51826313198785
Au          15.47536473521003       10.61475271608086       10.71857840454130
Au          13.05552656856851       10.42215576760734       12.12956358776612
Au          12.70414187029686       12.88011839095110       13.67334567487196
Au          15.03673687740285       13.10049851097563       11.47676779440031
P           13.12816808547445        8.50489116035624       16.03984078131084
P           16.72234013170378       11.33305019614037       15.42223582546217
P           15.97584790143893        8.48008666741152        9.74781337859295
P           11.71520810426129       10.01465828141214       10.21086445135252
P           11.92021281665235       15.06243557154122       13.14689473167240
P           15.80519816624748       15.34491036202425       11.01437633489457
O           16.00326807475680        8.50854135288000       15.44062453397722
O           13.18482959041151        7.55919717998932       10.26575531182054
O           14.67769198012783       15.93282715556858       13.60361298536482
C           14.09022478904734        7.12583473994028       15.33291145162742
C           13.50374287647490        5.90966003816952       14.98701609176990
C           14.28455198706883        4.84576467407937       14.56862452432194
C           15.66480556809475        4.96153508063193       14.56909719580778
C           16.28822570364429        6.15734241650609       14.91925336937411
C           15.48202086758380        7.25490150518101       15.21672481089525
C           17.35658118778018        8.64895282781316       15.62365190389485
C           17.81802117124305        9.95221181672900       15.86060472708460
C           19.16078755989334       10.13506803481477       16.19575631338739
C           20.02461184406667        9.05564838369085       16.25218520446703
C           19.57361445596753        7.79527149552275       15.89052720676115
C           18.23761426815186        7.57076109424753       15.56468340653400
C           17.79713961687608        6.20794563208212       15.06643843063896
C           18.46415637074396        5.96007205423157       13.69959686450845
C           18.22300328717754        5.12242181020512       16.07470156003951
C           11.44470160067926        7.80802369740547       16.03967700631693
C           10.74609630123434        7.85374683653176       14.82767389007711
C            9.45555656197012        7.35293243214796       14.72901961063744
C            8.84992002983917        6.81600695931656       15.86351163152565
C            9.52136258574517        6.77110791317904       17.08046683746588
C           10.82198399771126        7.26398510659079       17.16037684624269
C            8.71354702983458        7.38630995106365       13.42148946386363
C            8.86457893297647        6.17387032436286       18.29274911167981
C           13.59982333372644        8.54429653438647       17.79425027772378
C           12.88615257121424        9.43531228983182       18.60136646992281
C           13.14997553175356        9.53000905589780       19.96210710012159
C           14.16354414865357        8.74750011444714       20.51006765122495
C           14.91234396599014        7.88495071563316       19.71466063035181
C           14.61984918388602        7.78094002891621       18.35819391477230
C           12.33447157080770       10.44816061865060       20.82904244443581
C           16.00798842000572        7.05016436280571       20.31671925711504
C           15.87462271991944       11.85906657489893       16.94079056833704
C           14.80581027737035       12.74977927733308       16.81035266734350
C           14.12025112582335       13.21114081301221       17.92586459356710
C           14.53897448864081       12.80048470431951       19.19049965784309
C           15.61072855583733       11.92725873139493       19.34304637604186
C           16.26534540109042       11.44438571020967       18.21151871679811
C           12.95065488462442       14.14388288332102       17.77603203298085
C           16.08817037941738       11.52675774593556       20.70988050419154
C           17.95862224440845       12.64277048368291       15.14222247053577
C           18.46037597944586       13.45005186723998       16.16541536711285
C           19.52627540276065       14.31048782199376       15.92711635739336
C           20.09350328130656       14.35646840725173       14.65513545824017
C           19.58949263376717       13.58206455031185       13.61593663874500
C           18.51521318863044       12.73480368744184       13.86670552294525
C           20.09153436128739       15.15589287370958       17.03363056514046
C           20.21031320282455       13.62458826935049       12.24774041874804
C           15.44566347055762        6.86526855276729       10.41542852925257
C           16.38559086160715        5.89067202955516       10.74857335655523
C           15.98452658647058        4.62516717557095       11.13919312761903
C           14.63763974767611        4.30160871596130       11.13645216404124
C           13.66686766818205        5.24479512137018       10.80522929339002
C           14.08159452156382        6.54374009458788       10.50671179402155
C           11.84230721078188        7.27199757542626       10.19177107424575
C           10.99142245511602        8.37027112494281       10.00287146086373
C            9.62584465386567        8.15001207842598        9.82846909619019
C            9.11984741483385        6.86152101086477        9.85947554178376
C            9.96538473601722        5.79581893849651       10.12693478619348
C           11.33525778415109        5.98160716918131       10.30835472614579
C           12.21749009888014        4.80886197962776       10.68458399863911
C           11.72215714125116        4.24653017903705       12.03090247539720
C           12.12857054366079        3.72876658433046        9.58780345281859
C           17.78581242359828        8.41790922048140        9.96133991561654
C           18.30196646087270        8.90690580320683       11.16598114852509
C           19.67113967144553        8.95875935998071       11.39086757158636
C           20.53677953052582        8.51244349799077       10.39488873493204
C           20.04697691690743        8.01533473574305        9.19151168069872
C           18.67082899009016        7.96843603909146        8.98231243639825
C           20.21693113932817        9.49195835290693       12.68645876603977
C           20.98944894831935        7.51929393381702        8.13178394315878
C           15.75396588007459        8.30153624858870        7.95185266163608
C           16.34135283082632        9.28275591362530        7.14601744104097
C           16.25492551997419        9.21189136334982        5.76255297715377
C           15.54776302153213        8.15998948422264        5.18147142301540
C           14.92421957979164        7.19682908988657        5.96679139150162
C           15.03270356538748        7.27165548811034        7.35345844557320
C           16.93199326056894       10.23854854125119        4.89790339327192
C           14.16477874042431        6.06250559022717        5.33720165041795
C           12.41592369866095       10.45781117576516        8.59286999144706
C           13.30288114011874       11.53449512298987        8.52237811683742
C           13.91318396286546       11.88583427228318        7.32508397006962
C           13.58726841153478       11.17585101848537        6.17215769905922
C           12.68495362598737       10.11729981109799        6.21316222881923
C           12.11777394789879        9.74925160876143        7.43047698515930
C           14.92307568566461       12.99819448172683        7.27702145107328
C           12.30964859848275        9.38949946878212        4.95404434335871
C           10.25753616430852       11.08005329256074       10.42861354028162
C            9.85405684143053       12.07063501433435        9.53609938277403
C            8.75812390564802       12.87805272458162        9.82933818523555
C            8.05117192424833       12.66860149094359       11.00988957999777
C            8.43721902050631       11.68309391267042       11.91313678650799
C            9.55452255794011       10.91094684735197       11.62411147829346
C            8.34826044769930       13.97911394212898        8.89196051631729
C            7.66357169931611       11.43237581791667       13.17669752842234
C           12.47198784660274       16.29435783769773       14.36576556008999
C           11.58795881839998       16.89648106683739       15.26188641262634
C           12.06285218078846       17.61364364697429       16.34509528119466
C           13.42788754854317       17.70799517298017       16.56418421452605
C           14.34534053636699       17.15601334484466       15.67197931796910
C           13.85026464618358       16.47239905790859       14.56177365491745
C           16.01111234314124       16.28409084768613       13.60955216021299
C           16.71945974202839       16.03491073378750       12.42659785939991
C           18.07346930007814       16.35400747527436       12.37159525177809
C           18.70392571236447       16.91406883805817       13.46896095151317
C           17.98067656512779       17.17924689572330       14.62032190927791
C           16.62027569156626       16.88981300227477       14.70651307973326
C           15.83490526897661       17.23602647861178       15.95773341152125
C           16.20628379410039       18.65421172454932       16.43024238145579
C           16.17783639662984       16.21055637228423       17.05723112614498
C           11.81924906063458       15.86595455363468       11.51834341715910
C           11.44031173426836       17.20577326433190       11.41074737704138
C           11.13826165694477       17.75554910010361       10.17016480004451
C           11.24471479198500       16.95878585879307        9.03362083216847
C           11.66175908766906       15.63324441470956        9.11689670314864
C           11.93834354138061       15.08807815880176       10.36654039311269
C           10.66564986295422       19.17689486608256       10.05527072423551
C           11.80742217973251       14.82053496437829        7.86107267531669
C           10.15434447810475       14.90941099810532       13.59013017627853
C            9.86115788637308       14.22724781210362       14.77525097990383
C            8.55406921471232       14.08895578207446       15.22313269987109
C            7.51990564295746       14.63688081835911       14.46723201236669
C            7.78450909808872       15.30163427694026       13.27381198379272
C            9.10137801857944       15.42948342691925       12.83965608531885
C            8.26508228454238       13.38105547060677       16.51787071768493
C            6.66301683461273       15.90588900217884       12.47562807588423
C           15.01194172517961       16.83070393909297       10.29640801396610
C           14.75028353329581       17.97868638359759       11.04002120294025
C           14.25295541420381       19.12602034441134       10.42606975338109
C           14.02106014129772       19.11961094411082        9.05635930865007
C           14.24621141567937       17.97090308509143        8.29893993126159
C           14.72667637489465       16.82964614881018        8.92667114605449
C           14.00681216891219       20.35955577451940       11.24957859605065
C           13.99162725746556       17.98515514598154        6.81739796334862
C           17.14813108253466       15.04808455671765        9.80580971307368
C           17.72390587829649       16.07141083022419        9.04758125680383
C           18.73898514618395       15.80371718899305        8.13364086705714
C           19.19245567334967       14.49710693979836        7.97699024419293
C           18.64640384741337       13.46122597746431        8.72906002644948
C           17.63427464498625       13.75079214769764        9.63544996209184
C           19.35164823199330       16.92075323668802        7.33686769619427
C           19.13769749312786       12.04940010689743        8.55947484502431
H           12.43060107590850        5.78923720081925       15.06365943016913
H           13.82057436635392        3.90747953452519       14.29089858777306
H           16.26581235336190        4.10046905632933       14.30225051250196
H           19.53273836375791       11.13066656706504       16.40273481692117
H           21.06104234245591        9.20283207638747       16.52969861229584
H           20.28025269767789        6.97485354196536       15.85701521757125
H           18.17233307907624        4.98818147582680       13.30413968430141
H           19.54894239348546        5.98481001347882       13.79508729549775
H           18.15739214999594        6.73363428790198       12.99516568681082
H           17.75965961415920        5.31816125319508       17.04162544780725
H           19.30443318252193        5.11390117506388       16.19893558020835
H           17.91461360524291        4.13631361849611       15.73174255531303
H           11.22610024450089        8.28329430665401       13.95320370909964
H            7.83805750653082        6.43109407466020       15.79500024638284
H           11.34999967558122        7.22432560041543       18.10624770206602
H            7.77111804271608        7.92500281517634       13.53196380460105
H            8.48407721776039        6.37171018958524       13.09100505040581
H            9.30615205925024        7.87475003845814       12.64812786140164
H            7.78394248162073        6.30817841571489       18.25443311581775
H            9.24754621005122        6.62898076631905       19.20590645300111
H            9.07226651773894        5.10255118496019       18.33411334827783
H           12.10995092981118       10.05200813622226       18.15843824815450
H           14.37436649148692        8.81341288688133       21.57203337184048
H           15.19142019250046        7.09563550522399       17.74330265593837
H           12.90578744910791       10.77479608670029       21.69748376429386
H           11.44499363895684        9.92435675365832       21.18554738807957
H           12.00906274243066       11.32407004447746       20.26733068389198
H           16.74729143587266        6.77786812120662       19.56322328640583
H           15.58835327182055        6.13101226526520       20.73077767378008
H           16.50537918883930        7.58801671074646       21.12364303351229
H           14.51591387925110       13.09335478943115       15.82298756730939
H           14.02112231931480       13.17157142555458       20.06835828222076
H           17.08824595285642       10.74704024704856       18.32248572099862
H           13.16425002423597       15.10348603617375       18.24984993627818
H           12.06536395645214       13.72170010657513       18.25386474405227
H           12.72821641275321       14.32013888190229       16.72326124854705
H           16.94934015819717       12.13668537779988       20.99074106801594
H           16.39787523458687       10.48183891573592       20.71945418489408
H           15.30865002329382       11.67354436846840       21.45638667918075
H           18.02714366722657       13.39288748095545       17.15770364934550
H           20.94101304705255       15.00872247169835       14.47417064385069
H           18.11434587016077       12.12441401195392       13.06379644919641
H           19.44617285741725       15.13567964363807       17.91115370217213
H           20.20848874054353       16.18899378522865       16.70466753979946
H           21.07641690028523       14.78284581072750       17.32072922873237
H           19.44047078773731       13.59549458470047       11.47599810351024
H           20.85881160841927       12.75696485429637       12.10789531564169
H           20.81000274903323       14.52448300600397       12.11650199809413
H           17.44134438923134        6.12074097045920       10.68088702370742
H           16.72302528193438        3.87787276567667       11.40237426984000
H           14.33933063929873        3.29009839059095       11.38494400354487
H            8.96200710745192        8.99149029392905        9.67325749649913
H            8.06166875946578        6.68917965087265        9.70630309427640
H            9.54622532641959        4.79932522364879       10.20010251373203
H           12.33628033206353        3.40445606587407       12.34600791133118
H           10.69137461937130        3.90560355990695       11.94604169860438
H           11.77027091632790        5.02469071739621       12.79261897018633
H           12.47901754056326        4.13808616243225        8.64036219271692
H           11.10048589562480        3.39177431963326        9.46535818723538
H           12.74329044589474        2.86813906106370        9.84665179970771
H           17.61944072462872        9.25892070946752       11.93286148433327
H           21.60797684576169        8.55963221512519       10.55907439047900
H           18.28812948714193        7.58708059742611        8.04260881794423
H           19.43767085624203        9.99079338874689       13.26291672185208
H           21.02430647534625       10.20096446214742       12.49948177853354
H           20.61948375873330        8.67554832621179       13.28940374386341
H           21.93052010178184        8.06778197788772        8.16224420501956
H           20.54899240379761        7.62309089784055        7.14041692043926
H           21.20745299268603        6.46227749111089        8.29811337734022
H           16.88244602301411       10.10024769065308        7.61210857936269
H           15.48323694085184        8.09481659835317        4.10066108396102
H           14.55676854104071        6.51308020593448        7.96391536601672
H           16.27866200857887       10.54699190102692        4.08143233818326
H           17.83874350689914        9.81506921966164        4.46142293355998
H           17.21012125199132       11.11744204349920        5.47973770527820
H           13.86631147302327        6.30974086259922        4.31911787344926
H           13.27503381043281        5.82378747987225        5.92067646516025
H           14.79414496260223        5.17084065061377        5.30175054394083
H           13.50596737446665       12.11514793590004        9.41465159460218
H           14.04527021702753       11.45234032147881        5.22873063857254
H           11.43443437821076        8.90855558182563        7.47132574432774
H           14.94524998829894       13.54230923988750        8.22147705531444
H           14.69511742490620       13.69617683559117        6.47094908807465
H           15.91979132130049       12.59045494526631        7.09680861737373
H           11.47872955533319        9.90408841341863        4.46694102715669
H           11.99608824688026        8.36913950100183        5.17252137537962
H           13.14664218575329        9.36345282553890        4.25689985548701
H           10.39109833604705       12.20758283358961        8.60479571228230
H            7.18526389967095       13.28342136942180       11.22818362899620
H            9.88177178569507       10.15530332818732       12.33112308612764
H            8.82323078093954       14.91458616150105        9.19728082272520
H            7.26860147747399       14.12563378381955        8.91383018874814
H            8.65537248083831       13.75779572138685        7.87011730951717
H            8.33902882047739       11.36412452091527       14.03051665252132
H            7.12222196305133       10.48734530392028       13.09880262799542
H            6.94312222966783       12.22836882414563       13.35927271020889
H           10.52056404976602       16.79058794761678       15.11736637042612
H           11.36916991384254       18.07452691811818       17.03746867249638
H           13.77782886582957       18.22055563523259       17.45144199797719
H           18.63387648233955       16.17463818301880       11.46284850478555
H           19.75767813160442       17.15985530435703       13.42255972597064
H           18.49170997428926       17.62508472509712       15.46456196915700
H           15.95539573390458       19.37967557145003       15.65696213410395
H           17.27033702387125       18.72526815621659       16.64711608873195
H           15.67134172931919       18.91216944354043       17.34211441178905
H           15.59807060129300       16.41254577187119       17.95733652557855
H           17.23796146137646       16.26446721819872       17.30206874862522
H           15.94980218471155       15.20259305823255       16.71035802673793
H           11.36315130422425       17.81459952649818       12.30492631214528
H           11.00248637369636       17.37949245071583        8.06351598583054
H           12.23434075380337       14.04673285817259       10.45114771540213
H           10.87095360109302       19.73284257819415       10.96930118756847
H            9.58875946989046       19.19439859398564        9.87644391413178
H           11.15289807995561       19.67734136182394        9.21830923289993
H           11.98080729670692       13.77054150507145        8.09084093739604
H           12.65191756029994       15.18804770509984        7.27519694429209
H           10.91303266205551       14.90344398620060        7.24292852094216
H           10.67346518432855       13.81322095919314       15.36343929925532
H            6.49625291497583       14.54368964739153       14.81347277268885
H            9.30005182791065       15.94933401599957       11.90991857482559
H            9.05907436405792       12.67431810030249       16.76019054953484
H            7.31737552696781       12.84573352365821       16.46399468003260
H            8.19683769105462       14.10893622041985       17.32907968446033
H            5.77262088089542       15.27915008467901       12.52187165821993
H            6.95226457720348       16.03674804059274       11.43304503417032
H            6.40721135279235       16.88591226496736       12.88385850077397
H           14.95111005861816       18.00014226267923       12.10379199317033
H           13.66120040144478       20.01814429136482        8.56687901739199
H           14.91274410196025       15.93511480347670        8.34211963073980
H           13.43622791185072       21.09771244077967       10.68747857023052
H           14.95806208494853       20.80863325057797       11.54175223886797
H           13.46084135821065       20.10793934541846       12.15982892896512
H           12.97048766735148       18.30726344823519        6.60911300607973
H           14.14363005496294       16.99704981422850        6.38366297463082
H           14.67007876472880       18.68646236151658        6.32861816789364
H           17.37392475853587       17.09082198388440        9.16233244135408
H           19.97858726618040       14.28313589442647        7.26096394165577
H           17.20930824870090       12.94309535654709       10.21883691233726
H           18.65408060868828       17.75107341188072        7.23020983789532
H           19.64530768414871       16.57365701714174        6.34650217863503
H           20.24518701983548       17.28914741423297        7.84513164431237
H           18.96751248996267       11.71000467927516        7.53617731359550
H           18.62043432146965       11.37295361924201        9.24073574331287
H           20.20890073134002       11.99123734329010        8.75824516135884
