227
 energy: -332.065729097048 gnorm: 0.000046892356 xtb: 6.5.1 (579679a)
Au          13.77646738057349        2.63444354626277       24.61953799121201
Au          14.99773509548369        3.72853648046606       22.20293461424307
Au          13.72109316378059        1.41936854945991       21.97475359246926
Au          13.92939588623500        3.08421174712772       19.63706064873931
Au          16.14609893762014        1.81589368738421       20.46768480625646
Au          16.34762946185490        3.59006581005163       18.31813660556051
Au          15.17238010930134        1.22853137574867       17.94600964368535
P           11.67179445708248        3.74099242310052       24.60229778647886
P           15.65239073414749        1.48680098145745       25.52874370931118
P           16.16403695216200        5.79487279744676       22.53843655908110
P           12.26250313758714       -0.50994690227231       21.98972612106597
P           11.90534987208066        4.24883630933885       19.15884144824879
P           18.09800100443903        0.69389758565164       21.27964658701998
P           17.49434828778237        5.58339487166818       17.65367111385669
P           14.52732942010747       -0.90548272212565       17.10014577293580
C           14.06349683978188       -1.09260983026442       15.35651009764743
C           14.45996185394894       -2.17068758906768       14.56185890074264
H           15.08376976784402       -2.95278575742247       14.97896794630967
C           14.05760977958226       -2.24293075406766       13.23681794147233
H           14.36937677633443       -3.08389807154823       12.62869428865301
C           13.26202938236504       -1.24534931555357       12.69076011837761
H           12.95041308689396       -1.30625287257622       11.65486879156704
C           12.87133995651311       -0.16398254234731       13.47062755194251
H           12.25627254610589        0.62120222389926       13.04639299154892
C           13.27437207852215       -0.08271439224886       14.79298542062778
H           12.97989052901404        0.76942879492130       15.39906304127743
C           15.11192189021014       -0.04802544650601       26.34071816128911
C           15.93601259722690       -0.74044030504012       27.23433968203733
H           16.92841273193548       -0.36616395721114       27.45856021401492
C           15.48734218343896       -1.89935697669121       27.84667972105505
H           16.13553547577990       -2.42479819430361       28.53800151589767
C           14.21139048986171       -2.38150797622479       27.58473542916359
H           13.86075329601014       -3.28332104530999       28.07209287906480
C           13.38454680646334       -1.70231020249954       26.70124561653191
H           12.38755862668787       -2.07250318755248       26.49173975443590
C           13.83311546144307       -0.54602714878117       26.08279560068113
H           13.18867513607093       -0.02167760500541       25.38451387629339
C           15.78336960148001       -2.16282506012598       17.46107214033691
C           15.50132656023505       -3.52810914190517       17.57654854045478
H           14.48692656716349       -3.88763502468957       17.44773749746546
C           16.51571586688111       -4.43214486176551       17.85389526081002
H           16.28381770019639       -5.48739379340405       17.93755288239634
C           17.82274217298391       -3.99182191392942       18.01715253341091
H           18.61205609374886       -4.70250662822077       18.23117253240016
C           18.11536038283106       -2.63953094767994       17.90525061718307
H           19.13247468235360       -2.28698972373101       18.03350494442327
C           17.10349569424623       -1.73345459966037       17.63214571775106
H           17.33452767961330       -0.67588231194824       17.54923346654016
C           10.53773679543390        3.05389202493755       25.84621214761938
C            9.23806086725649        3.54541284672332       26.01505417417676
H            8.88223616171470        4.36784843520948       25.40516210844350
C            8.39758468221250        2.99140796478009       26.96664161852948
H            7.39435928718967        3.38303996026695       27.08652477515764
C            8.83716341566100        1.94418786549947       27.76636702325014
H            8.17726226271368        1.51601112381695       28.51127277734869
C           10.12609982366280        1.45266787070885       27.61307473197399
H           10.48010690880835        0.64048014081063       28.23713726579849
C           10.96913582030336        2.00496589247175       26.66164050836507
H           11.97710302323370        1.62034652001701       26.54853373767235
C           11.79004149066691        5.51495341455757       24.97074780487691
C           12.94399894525330        5.97622541027012       25.61132313754437
H           13.74422160981328        5.27711242433733       25.83377190226162
C           13.07509567776159        7.30849615485166       25.96744529979285
H           13.97432734604928        7.64637261365352       26.46933102610307
C           12.05433047962244        8.20509816542237       25.68316244966812
H           12.15304415040973        9.24696795344007       25.96322868360024
C           10.90678768359245        7.76342349302281       25.03811035479456
H           10.10766190160015        8.45988857084394       24.81316608766139
C           10.77131203827911        6.43009651191425       24.68381662188490
H            9.86557825792185        6.10309887427321       24.18688765082951
C           16.51582064992141        2.40067281501455       26.83691849330110
C           15.78386452379863        3.35498899562570       27.55127098652404
H           14.75588854445636        3.55883972748802       27.26876024070049
C           16.35138129398671        4.03334516830375       28.61757132862273
H           15.76488758744412        4.76132238924914       29.16552919168661
C           17.66579443415970        3.77447637382222       28.98383721529189
H           18.11044459544879        4.30028535801594       29.82016805854515
C           18.40784086135648        2.83859470940381       28.27615839581017
H           19.43391329727288        2.63273370042548       28.55740077971431
C           17.84080396448822        2.15220947556483       27.21304187900266
H           18.43373871285818        1.41644005006556       26.68273590947441
C           17.36701011821616        5.75628480518115       23.89605647798192
C           18.66820702549397        5.28435274600398       23.69515339589800
H           18.99836867701057        5.00685428589131       22.70008610547141
C           19.54916521329895        5.17413841584376       24.76083208157489
H           20.55741943058983        4.81639507916936       24.58769249955109
C           19.14500167490172        5.52888205373592       26.04072430525766
H           19.83642093294446        5.44839008801771       26.87090925109529
C           17.85173284685106        5.98633213506374       26.25381828693998
H           17.52950254772650        6.26324765821082       27.25068647483176
C           16.96526197431544        6.08741704980459       25.19411668063195
H           15.95390008184172        6.43696479708849       25.37017244959575
C           15.17444650977208        7.29577254342333       22.79407562497356
C           13.85148128384440        7.29370392250553       22.34296742186000
H           13.44188105746596        6.39026874079448       21.90275407201496
C           13.06719587727427        8.43079278609369       22.44741279418690
H           12.04382083123334        8.41280168601091       22.09038400762326
C           13.59316322991661        9.58613079071913       23.00996521552617
H           12.98059986124646       10.47590698435337       23.09329332422767
C           14.90510575470270        9.59948422958675       23.46508728561617
H           15.31842195185430       10.50024924593431       23.90321628103509
C           15.69520522856403        8.46582307227466       23.35583609533763
H           16.72125943963191        8.48824388420486       23.70465438802425
C           12.91860026816917       -1.98745534213978       22.81514472931575
C           14.23080038139931       -1.97086667307297       23.29116880951577
H           14.83384452196273       -1.07883139557628       23.15367759111836
C           14.76439035700320       -3.07545875027205       23.93702443650801
H           15.78203890131721       -3.04191194020472       24.30887458322860
C           13.99368831777418       -4.21662020602788       24.10809795450655
H           14.40830820773536       -5.07994146797752       24.61473948739436
C           12.68936163208127       -4.24987780785408       23.63058460600579
H           12.08622178845532       -5.14053651238719       23.76135558774023
C           12.15169646381600       -3.14531399021622       22.99034018991984
H           11.13040612899514       -3.17630580720481       22.62755735635224
C           10.62322631846462       -0.24952166269306       22.73406796157442
C            9.61782275207483        0.41420207376067       22.02101027535804
H            9.77891039646419        0.69092301722989       20.98464381522079
C            8.40313856897573        0.70944740889090       22.62189486792096
H            7.63141645429306        1.21165422800060       22.05030475241898
C            8.17666945881487        0.36330000974933       23.94727717846293
H            7.22788843014937        0.59604961340707       24.41562622499575
C            9.16974405183248       -0.28451630164880       24.66847497464089
H            9.00120116837135       -0.55820770358268       25.70351354351920
C           10.38361519280815       -0.58399056061646       24.07041731311810
H           11.14957555666116       -1.09368927801172       24.64327582428887
C           12.10500752847123        6.03325058717834       18.89783791075133
C           13.19055262866671        6.43701490445163       18.11127698746937
H           13.84964143816683        5.68590956163015       17.68581931293189
C           13.42451837562003        7.77878284459434       17.86068015293103
H           14.26130765343426        8.07262717111888       17.23719343160667
C           12.58571925640087        8.74277143343562       18.40492914936954
H           12.76919155594174        9.79316985989268       18.21328432755621
C           11.50845332031306        8.35609624720986       19.18965751533306
H           10.84510618334076        9.10399178154241       19.60807637254982
C           11.26513593226736        7.01215326422780       19.43466011172586
H           10.41132892461839        6.72982901554690       20.03900436045950
C           10.99117526295453        3.63487251712683       17.71566491680812
C           10.28089246964657        4.46569361400781       16.84607471151387
H           10.25731913276623        5.53555631805190       17.01870572815173
C            9.60719283379629        3.92504006065122       15.76118509479415
H            9.05961404846664        4.57806160286643       15.09189178089677
C            9.63138501789945        2.55622778079431       15.53235580051028
H            9.10294645247886        2.13812271346344       14.68392987169027
C           10.33648974370696        1.72157567852110       16.39054628376515
H           10.35775541489771        0.65165954609149       16.21711023803531
C           11.01722079708944        2.25793282979847       17.47089442924258
H           11.57868222186883        1.60798163430059       18.13644079607500
C           19.48226850770129        0.67289454460504       20.09871344417999
C           19.68999127083432        1.81183628954521       19.31371434577475
H           19.04373996769377        2.67630056572002       19.43982481833381
C           20.70741397013714        1.84641453144826       18.37490084240175
H           20.85425174730877        2.73480217577183       17.77199725707468
C           21.53245118852626        0.74273291061492       18.20271884310062
H           22.32517254658798        0.76851663751818       17.46467075130733
C           21.33586956688839       -0.39352737372615       18.97475489457222
H           21.97696370778035       -1.25750051019344       18.84528438434219
C           20.31766874447694       -0.43217485316103       19.91562761476204
H           20.17309554941033       -1.32653466935533       20.51038300395443
C           17.83247987635282       -1.05939430838691       21.67890142117622
C           16.79892520991017       -1.71363425361888       21.00167530627905
H           16.17030313836644       -1.14808357200979       20.32153227878097
C           16.57747168783214       -3.06956792240695       21.17744002150600
H           15.77638168644717       -3.55945972559886       20.63565792166550
C           17.38318074266171       -3.79590935321594       22.04411850650269
H           17.21593381010534       -4.85764635708682       22.17996173209335
C           18.40253302162597       -3.15653421452728       22.73718283646366
H           19.03230316065141       -3.71847622643824       23.41678158392680
C           18.63046876177856       -1.80054025808212       22.55636218447377
H           19.43754313372063       -1.32166046924409       23.09833121044284
C           16.95251912336770        6.10340734818508       16.00298885346886
C           15.91232457969243        5.41846393956946       15.37080293529936
H           15.46459277556984        4.55884236552709       15.86074840526891
C           15.45178030431702        5.82263006088187       14.12761105571847
H           14.64451952327177        5.27947393480516       13.65008984188053
C           16.02648913604217        6.91792665185920       13.49809585826375
H           15.66891409445059        7.23335375081504       12.52519096252837
C           17.06237924338118        7.60783776110674       14.11517453199262
H           17.51446718072292        8.46184223391275       13.62476373817360
C           17.52361344615837        7.20823130099194       15.35853425502146
H           18.33432103974697        7.74955379203597       15.83350746742918
C           19.30577168840385        5.49925064500735       17.54189973755117
C           20.10415583165890        5.68424179529429       18.67559440189678
H           19.64874079675195        5.93563469981415       19.62722201972078
C           21.48206252796440        5.55927137746079       18.59453553108999
H           22.08741807573568        5.71885753296047       19.47925215825233
C           22.08401595109286        5.23374594995065       17.38603725325831
H           23.16173711192435        5.14299939717990       17.32336223430417
C           21.29987630625839        5.02402652725960       16.25926951852417
H           21.76268952777085        4.76614432191299       15.31402996569679
C           19.92122306160781        5.14861781351264       16.33556357959451
H           19.31784188110094        4.98332121688100       15.45026551698441
C           10.67441361376028        3.63243390256179       23.04153024890903
H           10.64151510472769        2.57443724863103       22.76459356477294
H            9.64108154245514        3.94658226596644       23.20832855814313
C           11.28465425965172        4.43586642712724       21.89199147385615
H           12.36513797346034        4.25645075678917       21.87377959513273
H           11.14084064876810        5.50468132475932       22.06570136405018
C           10.68350467822344        4.03868315772290       20.53936501587588
H            9.75435272725064        4.58321847146594       20.35742541208375
H           10.42873481542228        2.97449303253987       20.55205611621517
C           16.98147612893205        0.88201529228124       24.38067808896846
H           17.62774973187897        0.16348309484781       24.89264739212374
H           16.48457849387426        0.33773550494375       23.57157914104937
C           17.82522365258767        2.00664016898692       23.78133949363777
H           17.16697821198904        2.72433450099647       23.27946402703849
H           18.34574977693796        2.54891297777227       24.57582110449260
C           18.85967867933706        1.48965011406664       22.77858171852440
H           19.55414573102273        0.81097830630737       23.27966919520380
H           19.44677740137493        2.34247111026403       22.42551559361726
C           17.18545793434233        6.23763716931653       21.05071816871304
H           17.97215462241083        6.94692122854768       21.32220703367302
H           17.66974633143047        5.32748356496877       20.68505945638825
C           16.32482378097652        6.83279727128929       19.93517715638716
H           15.88783439895342        7.77405754001680       20.28068644376680
H           15.49689434810317        6.15411045015934       19.70167820398063
C           17.14071065144897        7.10959114017547       18.66887165338313
H           18.06729632924641        7.62291470450194       18.93601870334925
H           16.56667774742946        7.79489329703941       18.03970821349602
C           11.89927241244339       -1.10889024358083       20.27164092999519
H           11.30671719152839       -2.02705042665306       20.28034745018273
H           11.31379756418990       -0.34367618817931       19.75485486000036
C           13.21420238783426       -1.32465130359710       19.51858046589651
H           13.72854237360905       -2.20806597211734       19.90625393248133
H           13.86608687652521       -0.46382618676711       19.71096874707862
C           13.00635007823387       -1.46059495732422       18.00732125825847
H           12.18930699345960       -0.80766670671216       17.68713315470617
H           12.71690625458566       -2.48158233923760       17.74937913285713
