258
 energy: -382.246310557757 gnorm: 0.000581721888 xtb: 6.5.1 (579679a)
Au          23.52607072048738        2.38291600826485       21.16559185747516
Au          21.22946685514994        2.36000326374946       23.11520788980365
Au          22.23608440991280        4.71912032606563       22.51756667700907
Au          19.37985273197368        4.51480986202887       22.33764930910638
P           23.08657847158055        1.39591374314537       19.07310826819015
P           18.92744308923310        8.96744198702989       23.25794672432518
P           23.14335303062034        6.83675385513710       21.83099336571878
P           18.32534314078400        4.51314248506451       20.19231642092080
S           24.63806246428372        3.27702221043357       23.09240556678034
C           22.89999953385142       -0.40516562172115       19.17905098648755
C           22.76520014452964       -1.02062698272299       20.42517912602655
H           22.77053659928158       -0.41334039175352       21.32530916537118
C           22.63069852611597       -2.39676682200060       20.52148393275231
H           22.52725556023924       -2.85794290018924       21.49714629272525
C           22.63197047325788       -3.17663631802187       19.37377352386967
H           22.52864100648156       -4.25248975808756       19.44900015041857
C           22.77413464504084       -2.57693720738444       18.12863597557287
H           22.78415701641431       -3.18380525184074       17.23103366099629
C           22.90929044707043       -1.20222798919520       18.02725726390981
H           23.03183686055055       -0.74223350396908       17.05299064615371
C           24.64861877837766        1.58975842179952       18.15719904329486
C           25.79500788679526        1.08792026131484       18.78833361563523
H           25.70071899166944        0.59853751868796       19.75285244762620
C           27.03758208495036        1.18238408824766       18.18424652478962
H           27.90939824637731        0.77295168555332       18.68117838906099
C           27.16124305779272        1.79127898733555       16.94153447089925
H           28.13132760884730        1.86117555344511       16.46434633581084
C           26.03617918483381        2.30110984886252       16.31070129330930
H           26.12347237099524        2.77117935596906       15.33822504812213
C           24.78783785606515        2.20412896949914       16.91098652065734
H           23.92576203630379        2.59869967179098       16.38781425415493
C           20.06064757782385        9.95174944845384       24.28566734588271
C           20.17568014357852        9.58512805346969       25.62940604043723
H           19.64793581964082        8.70541764663335       25.98388772655424
C           20.94061586758914       10.33304310870916       26.51001417298941
H           21.00048177641987       10.04077086608678       27.55214445798937
C           21.62088551166611       11.45501349376594       26.05529354193042
H           22.21648604365001       12.04460454034952       26.74183537081253
C           21.53687781104239       11.81677495520148       24.71760419841673
H           22.07104824555398       12.68762766467177       24.35629498585870
C           20.76203089713379       11.07635707735502       23.83772941252997
H           20.70644166082230       11.37806621525721       22.79842512767094
C           17.42937275674245        9.99315909554987       23.13169931280516
C           17.44077636199501       11.38913455868115       23.20053041972935
H           18.37531820770853       11.91834842100762       23.34581103437873
C           16.25940799751546       12.10658040991252       23.08765820751568
H           16.28375504922051       13.18862566482463       23.13977265058646
C           15.05179709426936       11.44499261626322       22.90927595888585
H           14.13072538752919       12.00906290282132       22.82467257128037
C           15.02766677359452       10.05844239096025       22.84316674765281
H           14.08907918530102        9.53290566049270       22.70848381348128
C           16.20678428376387        9.33904893147946       22.95363350440856
H           16.18264535767869        8.25517298378622       22.89794921321372
C           24.55195705668065        7.42552947086988       22.82321678454430
C           25.47172335270848        8.36946968154436       22.35936023450092
H           25.38513643416551        8.75962835807078       21.35154517609785
C           26.49571660625750        8.81244289168237       23.18243918044679
H           27.19976332654690        9.54892583378590       22.81328065808319
C           26.61588206380908        8.32268634620140       24.47636335844320
H           27.41231026983019        8.67752334658081       25.11962888602407
C           25.71271599632166        7.37740230856922       24.94480308146640
H           25.79818824471533        6.99253751251966       25.95462640198974
C           24.69148698387584        6.92839366357062       24.12130929474755
H           23.99078132064697        6.18435676569684       24.48613967178784
C           23.70424560002045        6.94437750439748       20.10386583190818
C           23.66847217523377        8.11071717942428       19.33319783278147
H           23.28642381451847        9.03285196489438       19.75480876880582
C           24.12162826339189        8.10142408530667       18.02208582482179
H           24.08476130660898        9.01339573819726       17.43794047699403
C           24.62304831052405        6.93600412776833       17.45955077382098
H           24.97758755304671        6.93462676667246       16.43582455008045
C           24.66834957902324        5.77051236009322       18.21381991024101
H           25.06378983795920        4.85553274344066       17.78605291620370
C           24.20693300712844        5.77697857627916       19.52004083071356
H           24.23668600963415        4.86116163718397       20.10384182732673
C           17.22506965695107        5.93848002084575       19.93993039525567
C           16.00759111231750        5.94988141552121       20.62986667442108
H           15.71986084679179        5.09136597758948       21.22824511400420
C           15.16418099088044        7.04614825262797       20.56092030769139
H           14.22410336675619        7.03029348064391       21.10096924762743
C           15.52433421729963        8.15800397143502       19.81055635092901
H           14.86310295426875        9.01420607285312       19.75381260801922
C           16.73880781993392        8.16870574345280       19.13939190126138
H           17.02824985557665        9.03248380640031       18.55250554727851
C           17.58762407847100        7.07253397562971       19.20872095890700
H           18.53301187325430        7.10594484905319       18.67970800540646
C           17.22754711041645        3.07737030813244       19.99913661116004
C           16.29624451425060        2.99570922621122       18.95808138766464
H           16.19948863443235        3.81687447316564       18.25675141878062
C           15.49403304413458        1.87418294359847       18.82205550352450
H           14.77753395393142        1.82183423644763       18.01085967773774
C           15.60659004679546        0.82050449169532       19.72027677904919
H           14.97712846117791       -0.05482760910599       19.61300154178854
C           16.52436681541742        0.89218147634572       20.75895237765055
H           16.61159120139405        0.07648050547488       21.46728353827805
C           17.33041116854711        2.01170865135553       20.89522511077542
H           18.04853633403429        2.06473191070857       21.70775036893997
C           26.15749303358551        3.85446011560755       22.60759828658574
C           26.97069720531172        4.51505948784466       23.56113637689865
H           26.59373277064740        4.66643575107788       24.56411032537200
C           28.22210546167531        4.94779320647993       23.23508093119837
H           28.87920061924764        5.44837415663006       23.93605878626210
N           28.70365164175088        4.75678302759331       21.98608031176836
H           29.64263521755328        5.06694929539882       21.76496386185366
C           27.97118424609821        4.13721948535018       21.03581827667545
H           28.43724351273177        4.01806773169816       20.06490391589694
C           26.71386590275290        3.68796496019443       21.31873328265767
H           26.14624936343373        3.17925320570353       20.55015356702543
C           21.74787187235462        1.95332239965506       17.89231680339740
H           22.06532073717910        1.63483770932507       16.89121715064897
H           20.52741127169332        0.18012009462060       18.08848686819988
C           20.86126880364094        4.09100601801663       19.03917379494796
H           20.89629876350407        3.40294296217800       19.88945516978035
H           21.34841083595033        5.01572853119879       19.36522898528969
C           19.40346255691672        4.40601775643709       18.67764347221279
H           19.00244709613164        3.62641646430662       18.02642066814289
H           19.37634841932656        5.33592004931924       18.10690633923102
C           19.58133006148139        9.04925132161603       21.51950516954875
H           19.95266319563468       10.04842251355843       21.27902891371208
H           18.73320132187435        8.85610203883203       20.85549678368460
C           20.66172705682845        8.00600024131814       21.22456430586011
H           20.90342721701380        8.03896724429553       20.15766498613231
H           20.26138365610281        7.00759314665236       21.43623419138303
C           21.93184312379032        8.22417687551434       22.04825663947667
H           21.67303882046378        8.24768393817174       23.11168816261350
H           22.37611010508461        9.19382661829349       21.80836220748329
Au          16.03839717987832        6.61605314243161       25.79114998300568
Au          18.45673007508761        6.71780493632152       23.96570527234714
Au          17.48308403012360        4.35424988399998       24.55885168372691
Au          20.35848464270518        4.59956956666603       24.77066315428595
P           17.16894917789489        7.30451573674112       27.72481035892261
P           20.79417216216584        0.12241060970468       23.87198334289806
P           16.53721612559739        2.24799558728105       25.20253311636667
P           21.21093382956470        4.45658080836536       26.99758952401525
S           14.80203425474710        5.99260367863678       23.88045154712130
C           17.52873931179472        9.08242303218780       27.77676426331070
C           17.07569401650185        9.89942975908055       26.73701304471808
H           16.54115150011463        9.45613548203814       25.90261545745705
C           17.30336646276443       11.26617278372323       26.76231692321773
H           16.94400605591329       11.88445739782811       25.94789234871855
C           17.98601611910675       11.83672556990736       27.82719959956109
H           18.16042470494871       12.90572377058298       27.85013881182079
C           18.43978195785331       11.03560993476899       28.86772053909773
H           18.96711552847306       11.47831220728863       29.70442778674592
C           18.21227490621831        9.66899680061408       28.84814194611679
H           18.56028968105827        9.05594989446450       29.67175974111906
C           16.26996216207063        6.95856198192673       29.26315705698839
C           14.87385931758661        6.88762474770042       29.20749312230264
H           14.37198645617261        7.00825281590639       28.25219762595813
C           14.12774899160119        6.67249931099209       30.35562801879929
H           13.04677070997854        6.62727846178846       30.29393877844158
C           14.76556511884728        6.52282026580912       31.58003640430624
H           14.18377238112449        6.35813625725354       32.47894628958872
C           16.15039632410666        6.58808265222109       31.64901384170522
H           16.65335925285201        6.47419408967294       32.60205715244354
C           16.90008234774458        6.80513550939536       30.50330352893488
H           17.97966954705745        6.85893723027737       30.58043089384934
C           19.69988782012197       -0.90254314574640       22.84153076228135
C           19.65520433703369       -0.60307466798784       21.47646471721593
H           20.21787244345327        0.24667557928242       21.10238837994306
C           18.90769120992701       -1.37559874478853       20.60220910865443
H           18.89083335611745       -1.13159494139586       19.54636265432572
C           18.18096408551722       -2.45764933087083       21.08109796268080
H           17.59800090850367       -3.06508697325771       20.39931751217511
C           18.20189646183488       -2.75612733649426       22.43666046064310
H           17.63317981674402       -3.59666201266169       22.81656431792927
C           18.95494078548994       -1.98865047853055       23.31230765282903
H           18.95838321998411       -2.24011039661821       24.36629354447218
C           22.29988780058101       -0.88422013297687       24.05316261547012
C           22.27475874980439       -2.27924121447970       24.14777640771285
H           21.33038229367185       -2.80926689626189       24.10340826488945
C           23.45394405863351       -2.99301221394500       24.29749267007710
H           23.41957543304649       -4.07344182376387       24.37234771015945
C           24.67281871392113       -2.32964113829136       24.34951467222909
H           25.59229700315307       -2.89134613649086       24.46253802372413
C           24.71020465057158       -0.94530838391036       24.25370631420801
H           25.65759351695240       -0.41967907425966       24.29017329492406
C           23.53280120830709       -0.22894771471716       24.10763144791083
H           23.56598771528507        0.85374068855865       24.03895533708235
C           15.12260458779848        1.69374373031481       24.20106644005803
C           14.38198692824655        0.54763737342654       24.50567844012495
H           14.62966804238403       -0.04033493008626       25.38221929215972
C           13.32887945121819        0.15880420397422       23.69330060024125
H           12.76432182817780       -0.73352511241188       23.93679149685457
C           12.99714935201048        0.90699513950932       22.57077701929861
H           12.17511699637115        0.59774581921342       21.93620755928323
C           13.72037896544123        2.05136400390263       22.26379702088048
H           13.46991714649710        2.63789898009553       21.38696703569210
C           14.77485410021435        2.44211820098877       23.07451256911044
H           15.33888565996946        3.33771835417075       22.83475841267165
C           15.98400920523723        2.09377832873185       26.92987712939694
C           16.00216014313103        0.89803898001642       27.65503699950701
H           16.35699523869484       -0.01623274472329       27.19438425239790
C           15.56569861959641        0.86624159533287       28.97117503751412
H           15.58706611063844       -0.06892012054774       29.51825020851371
C           15.10320996574138        2.02119174786311       29.58617265858458
H           14.76425358957289        1.99206387464458       30.61474924204660
C           15.07682549509103        3.21523431143572       28.87786132059019
H           14.71591056689043        4.12331989619870       29.34776722994681
C           15.51543904874061        3.24821478020450       27.56452425414306
H           15.49586960629150        4.18647081176298       27.01618525781534
C           22.38808075916209        3.08187168761536       27.19218862632955
C           23.52684232410957        3.13449383823758       26.37952792104976
H           23.67719972271405        3.98501744472899       25.72141641118992
C           24.46384939321101        2.11596328052959       26.40112878010715
H           25.33934330101858        2.18250164872963       25.76487550239671
C           24.27564994573645        1.01544676085650       27.22793014811160
H           25.00617496886306        0.21566103202962       27.24413355136005
C           23.14654393657586        0.94521067541640       28.03039672776297
H           22.99389905480585        0.09186262091587       28.68059884646232
C           22.20742073121268        1.96823658382777       28.01471004836034
H           21.34007025873566        1.89232050466907       28.65917666660143
C           22.20736811275934        5.89365544139504       27.49470881184973
C           22.89346144616826        5.92777964662443       28.71339646019141
H           22.81513760068833        5.09226528589791       29.40019346224412
C           23.68064471948459        7.01882137306505       29.04381592203187
H           24.20463339788659        7.03544379143706       29.99212892913107
C           23.80732003988045        8.08283017916228       28.15969526565350
H           24.43080832867517        8.93100388719231       28.41612647987081
C           23.13639979432792        8.05647958361237       26.94475464841861
H           23.23795736154815        8.87909895532036       26.24649862483876
C           22.33625425569456        6.97209276692213       26.61734986919000
H           21.80662299181733        6.95651681609873       25.66951900266347
C           13.23245612068998        5.53680597244716       24.32281912069717
C           12.32611035717631        5.16915518222295       23.29700858954719
H           12.66418561008545        5.16740499454768       22.26882051978084
C           11.03504347523786        4.83960294439991       23.58699205500816
H           10.30696797434386        4.56710275385628       22.83232618479984
N           10.60346759001557        4.84761179969142       24.86785775806995
H            9.63656093577938        4.61731566407729       25.06555356619585
C           11.42632799485113        5.17332147485751       25.88682510655862
H           10.99694009609315        5.15338780356810       26.88147623117489
C           12.72586545934958        5.51198054544835       25.64196785805407
H           13.37267835025752        5.77731692095640       26.46786765993372
C           18.81152826207718        6.47583818972448       27.94873322946123
H           19.34531523322385        6.87974357953148       28.81263441031076
H           19.42272109873847        6.69114769856563       27.06751161929606
C           18.64766394294551        4.96212516506302       28.09330582350689
H           18.20052441307620        4.56172448722440       27.17651225717323
H           17.95711467154724        4.74079976261130       28.91322460008263
C           19.96933354403437        4.23891562288436       28.36282644866571
H           20.38485118850287        4.57432661667703       29.31660371879099
H           19.73896614526048        3.17540948022997       28.46290895260273
C           20.10628679447844        0.07194116248199       25.59779513751369
H           19.74379585848998       -0.92620830915508       25.85504223547028
H           20.93704684057530        0.29310436275627       26.27541408542658
C           19.00623413956568        1.10628668841607       25.84505041473323
H           18.72733550664764        1.07784791218226       26.90313964123173
H           19.40571902244364        2.10661675618938       25.64102358049646
C           17.76605476002368        0.87812998025127       24.97907394433749
H           18.05704423567432        0.87955691266480       23.92426711435164
H           17.33310404066652       -0.10338526534489       25.18826018822735
C           21.63842965151199        3.48968849626161       17.85944924756903
H           22.64623536052216        3.91543563579135       17.85023314362502
H           21.16022177669665        3.78402182722617       16.92042161289502
C           20.41152923136140        1.26033677929722       18.16922202717299
H           20.03143575618893        1.49127554168845       19.16438045206515
H           19.67447684869603        1.57736496469429       17.43098349925052
