206
 energy: -318.416548923316 gnorm: 0.000190898390 xtb: 6.5.1 (579679a)
Au           5.94859221507229       15.94905250490009       15.11531242688394
Au           7.82613443010044       17.12911662434360       17.06896888845186
Au           9.89518439440725       16.84010907162724       15.00385666767042
P            4.91372199001906       18.10381606670531       15.01764482181555
S            4.32962905427733       14.47965175342732       16.64060027250376
P            6.30169303741066       18.77537994225571       17.72125191136547
P           10.83112266362291       18.21184526673133       13.35482038302053
C            3.17741072139034       18.12190629318927       14.46813368573057
C            4.81295440480612       19.02518045812502       16.62066941748201
H            3.93319880897029       18.64154931055657       17.14081592893580
H            4.64520725715256       20.08910945623934       16.44418778099769
C           12.44562009465185       17.60554764275865       12.78205275831233
C            6.91342310192725       20.46547001704266       17.97280625421889
C            8.13559517805320       17.11168385868711        9.83212706031904
C            1.29195349489629       19.00867757343070       13.24927885987396
H            0.87727331659820       19.75757594890343       12.58452377800643
C            6.08393952838903       21.50311943286317       18.41357738744691
H            5.04247391801519       21.30297045869325       18.64005065706766
C            4.75379126540296       17.09366079291376       19.25978087663625
H            4.61999554952047       16.54354457719213       18.33199086235421
C            5.12173644181296       18.45095046836238       21.65198829183995
H            5.27200947242603       18.97971692951181       22.58603392586204
C            5.51128875758687       18.27207598678518       19.27665898313668
C           11.52469487699918       20.13683320233999       15.18714327986276
H           11.63346752599642       19.28260841907489       15.84745839918918
C           14.87306151124058       16.58150724689611       11.86279401113787
H           15.81582310198869       16.18451432649496       11.50539466560170
C            8.64371087569202       17.79587046328319        8.72466995010140
H            9.66538037926464       18.15795978209302        8.73004152344284
C            4.17601043831019       16.61471526003759       20.42323126421234
H            3.58775349511888       15.70469024636305       20.39477915012368
C            5.78786947905044       19.21276954468180       13.87417373021967
C            2.62923111628968       19.07937587911459       13.61177863113651
H            3.24629429662364       19.88424504831801       13.22927922182679
C           10.45457970680385       15.67787233808005       10.77640307573616
C            5.70223235247566       18.93643775289970       20.48940565445763
H            6.30523680702008       19.83645053372399       20.52589752085957
C            7.40390266991092       20.94332699749248       13.38082946314473
H            8.08936602318422       21.70729071783251       13.73003648422886
C           11.13625448739859       19.93171767956358       13.85939474058110
C            2.35557985694072       17.10178516510612       14.95868978460362
H            2.77168189451775       16.35159213708182       15.62373077826916
C            6.67996283683065       20.19823017963706       14.29995647690135
H            6.81260606256319       20.39111395931775       15.35803435996533
C            1.01772204728534       17.04241605188701       14.60447586137389
H            0.38991347695818       16.25419511383015       15.00375114323658
C            9.89589669656746       18.36765183954385       11.75884192750110
H            9.08833344452830       19.08913464160698       11.89796484412286
H           10.54200671256438       18.73357643408227       10.95959558352865
C            0.48431097036016       17.99275756556673       13.74378452752818
H           -0.56086943957267       17.94479267443971       13.46148159330188
C           12.81143806318559       16.28703818932296       13.06005605050023
H           12.14053470132082       15.65653241719857       13.63404531243311
C            5.67009393242902       18.96765052123219       12.50017562558361
H            5.00793211107514       18.18178123320205       12.15130197746725
C            7.84642986090566       18.01951068820071        7.61314434461085
H            8.25286545397936       18.55194728796996        6.76114787639117
C           10.44356960098739       14.35354484847432       11.22343344941798
H            9.65053968453066       14.02314909815891       11.88676909793411
C            7.24989459826130       20.71545672730167       12.01984468268642
H            7.79834554977083       21.31354405090275       11.30161527598352
C            8.25173783994576       20.74625270092208       17.68529832780619
H            8.90248223820655       19.94853870168537       17.34151616332912
C           13.31900960266032       18.40885308391945       12.04240998161200
H           13.05486623470964       19.43869316796013       11.82793284279717
C            6.58740378664108       22.78498471918261       18.56413832462772
H            5.93695622003004       23.57998104446387       18.90964003114637
C           10.99031019113165       21.04127777851711       13.02278517999371
H           10.69132217839418       20.91206618730580       11.98902612854170
C            4.35557978830781       17.29459610645470       21.62137059310885
H            3.90350418786454       16.91847056635837       22.53152997725129
C           14.52388678192502       17.89744508759672       11.58773517750493
H           15.19419957804138       18.52943853680503       11.01700354853514
C           12.48075081504024       15.20314412437984        9.55051605130604
H           13.27980432217275       15.53963402227656        8.90026120244475
C           11.48770053458237       16.09171679205079        9.93101295833412
H           11.52532053942995       17.11494892592947        9.57559216381861
C           11.77426423024103       21.41340400689165       15.66341266487086
H           12.09006094326758       21.55318092824437       16.69071779275386
C            6.38189323060771       19.72105287379061       11.58200988771791
H            6.26114311067849       19.53212204823177       10.52160053511208
C            6.81196453210286       16.66551686558933        9.79454148216653
H            6.40296513655407       16.14234877754797       10.65240089958902
C           11.62133286675171       22.50894192411549       14.82362292589845
H           11.81027811220589       23.50899665489682       15.19539752976604
C            6.01619085611185       16.88731113139077        8.68206144726839
H            4.99198716098681       16.53158684521969        8.67375661569732
C           11.43460849729272       13.46508236679165       10.83822798484492
H           11.41133706662933       12.44257700076363       11.19782394022789
C           12.45724389413023       13.88972418706663       10.00160845295060
H           13.23689575660638       13.19914006221298        9.70268647376078
C            6.53428226027933       17.56482585971210        7.58710568069054
H            5.91626928793709       17.74109753655522        6.71470418248057
C           14.01518364598895       15.77728034731716       12.60028576740243
H           14.28257176526794       14.74955699398445       12.81775202841959
C           11.22702496892011       22.31979445814596       13.50637431088266
H           11.10764428327606       23.17143833700592       12.84671815833220
C            7.91938536664166       23.05179564056936       18.27382669257932
H            8.30912254372572       24.05603045794596       18.39135621261866
C            8.75026689152847       22.03110229881343       17.83381445253486
H            9.78991610889901       22.23453691916732       17.60396172265424
P            9.09970774566358       16.75296812563245       11.33756640346386
Au           7.83155678866849       15.84185407044431       13.11540138655549
Au           7.60490951401588       13.87101203001439       15.11493418517972
Au           5.72707490718554       12.69124344724731       17.06886981944918
Au           3.65734604538145       12.98044677827565       15.00510221445841
P            8.63890472732443       11.71596248787278       15.01665679131950
S            9.22385853361480       15.34107508071526       16.63969274627790
P            7.25125013498238       11.04383093799460       17.72020635539380
P            2.72037742913546       11.60999099087209       13.35604218208561
C           10.37499222738001       11.69759917103872       14.46648534453463
C            8.73969597554514       10.79386292371527       16.61925091473917
H            9.61970175881779       11.17694890776871       17.13937406417921
H            8.90697998854778        9.72994130903088       16.44230181302230
C            1.10683185459672       12.21774897495733       12.78215395326512
C            6.63885290233421        9.35391169709247       17.97122165999616
C            5.41761307181082       12.70525485634605        9.83304690699428
C           12.25989722615577       10.81006695355338       13.24733195359362
H           12.67427659080278       10.06077889648160       12.58282826650777
C            7.46791328462941        8.31572239392353       18.41149942676481
H            8.50947907846989        8.51532847897768       18.63798640960653
C            8.79988003932674       12.72469541559759       19.25884474396291
H            8.93342117338541       13.27511234769947       18.33119901788874
C            8.43256838873028       11.36659370130115       21.65069024601155
H            8.28254831127672       10.83751162890933       22.58459722227492
C            8.04220155828292       11.54638951208985       19.27557069242388
C            2.02493099586168        9.68663635136917       15.18936130282668
H            1.91688344860676       10.54133909971849       15.84917271803918
C           -1.31849892810065       13.24443079779414       11.86031673880727
H           -2.26041224049770       13.64247810576112       11.50185959168208
C            4.91282927480779       12.01090746214596        8.73039238967331
H            3.89376014806279       11.64161846037870        8.73930768936673
C            9.37816136895381       13.20312203279278       20.42226030424175
H            9.96656777960626       14.11305345168338       20.39393142097362
C            7.76415526912744       10.60774526321319       13.87290798830455
C           10.92278538160739       10.73959754163785       13.61046969508195
H           10.30552928825857        9.93451706940879       13.22872247941139
C            3.09966055277002       14.14152516806616       10.77555440979719
C            7.85157860150687       10.88161726779734       20.48813817194517
H            7.24842749420813        9.98169931364380       20.52451543174184
C            6.14763823052619        8.87772409470423       13.37923808285551
H            5.46197137662576        8.11387909922898       13.72830797558185
C            2.41357886806121        9.89066703355172       13.86150312205870
C           11.19703907504880       12.71800761780520       14.95606196278767
H           10.78123147122203       13.46860205101702       15.62083267484670
C            6.87181446204937        9.62242899599763       14.29849951187248
H            6.73916614543811        9.42933741317992       15.35653803936257
C           12.53473025297280       12.77716410051803       14.60118887608948
H           13.16271083303508       13.56565426373263       14.99966273062764
C            3.65559037352148       11.45226007884018       11.76025761924931
H            4.46228405804835       10.72986774104802       11.89968070252295
H            3.00887170985501       11.08672392388531       10.96132493710230
C           13.06775128316196       11.82631059715779       13.74082960091055
H           14.11278613386811       11.87415548257025       13.45796734744089
C            0.74302900390204       13.53723844675017       13.05812365631092
H            1.41467638835801       14.16747492813579       13.63154119612612
C            7.88189687117222       10.85318838721787       12.49896051530154
H            8.54420150744158       11.63899992369952       12.15022631814057
C            5.71023239961978       11.78612539110080        7.61916936324538
H            5.30642748277274       11.24571105989186        6.77095265345219
C            3.10806571575750       15.46479406405981       11.22570638115494
H            3.89871358491385       15.79438449173409       11.89226871558391
C            6.30170134710037        9.10582386995398       12.01829379967070
H            5.75312878768711        8.50799513259715       11.29994141489944
C            5.30040536181066        9.07382409061046       17.68364398207443
H            4.64998285363682        9.87196150192417       17.34023807874569
C            0.23247843965926       11.41480450152441       12.04327679318986
H            0.49505108028039       10.38423579448201       11.83037448516122
C            6.96389716217520        7.03401141127246       18.56153290144826
H            7.61401443296735        6.23858698158251       18.90666599326667
C            2.55861866428514        8.78046414022496       13.02556117401232
H            2.85772578409510        8.90879364468022       11.99172785446285
C            9.19890645047984       12.52283047443555       21.62021479786531
H            9.65138497512033       12.89854174251548       22.53034517173418
C           -0.97136950214645       11.92752202870351       11.58734360343093
H           -1.64245353411293       11.29580647289175       11.01721253835673
C            1.07700370154716       14.61720684966229        9.54428442964077
H            0.28038347833848       14.28155623945297        8.89061967523912
C            2.06972746024851       13.72871209648006        9.92577562100876
H            2.03456259018566       12.70637554416996        9.56751959293113
C            1.77428731634978        8.41054936963837       15.66638862473314
H            1.45840721851994        8.27163956124669       16.69378553068550
C            7.16991763785578       10.10013110815029       11.58065550694654
H            7.29069027464938       10.28922062553025       10.52027918703370
C            6.73808757174483       13.16032153474931        9.79101996875732
H            7.14461633115547       13.69130710220448       10.64524198714041
C            1.92629804733802        7.31438487547788       14.82724520861199
H            1.73651288154225        6.31470580503013       15.19961033553788
C            7.53392811692527       12.93741154266729        8.67883394786523
H            8.55566272600167       13.30007268719613        8.66706901995251
C            2.11740315405823       16.35323137276592       10.83942187671600
H            2.13859898559424       17.37493160429842       11.20142825242076
C            1.09781539172730       15.92957372486599        9.99859950816810
H            0.31847106423145       16.62013210526009        9.69881452634126
C            7.01915666651375       12.24971623312527        7.58866111176219
H            7.63729399020871       12.07238706705855        6.71656227803082
C           -0.45964733406361       14.04831125594204       12.59704790149310
H           -0.72540375187085       15.07680462548491       12.81287491220511
C            2.32078789806417        7.50243001854829       13.50989556414864
H            2.43947606418182        6.65029000181739       12.85075143043983
C            5.63179429086688        6.76789223945373       18.27114082949081
H            5.24164027857179        5.76376907446293       18.38823198546965
C            4.80132941036516        7.78912557143897       17.83159395793995
H            3.76159087645060        7.58624202004243       17.60164719561961
P            4.45354003740833       13.06580688172049       11.33803427945105
Au           5.72125869237715       13.97793902046478       13.11586041892729
