280
 energy: -421.255086355223 gnorm: 0.000040894636 xtb: 6.5.1 (579679a)
Au           8.14692848170576        6.10169956434506        0.27697582498643
Au           7.90483672223399        8.71786502570059        0.21549852400305
Au          10.33594726755647        7.33992984086377       -0.73218426944758
Au           5.97224565592091        6.94096086682781       -1.10761796527572
Au           7.85162823467138        7.14824994891810        2.74597345566464
Au          10.36634444136610        6.15149083847699        1.85493773743247
Au           8.38250825554895        6.12217390314155       -2.42710137761617
Au           5.72479980837956        5.72321295687007        1.46975486678631
P            8.38408299946176        3.59436345933430        0.24715510534142
P            7.67622274982683       11.07444606241900        0.21739929058233
P           12.15818149343234        8.45488089138966       -1.81374355744637
P            4.00158299445447        7.74566645273435       -2.19844460182713
P            7.71466367769766        8.11009140247873        4.93297801355709
P           12.26374905530117        5.74298193656483        3.26396748790000
P            8.74896194941097        5.62423103347761       -4.74908197650043
P            3.64047163657113        4.94484937187587        2.36946707547045
C            7.48559202557778        2.71700121516846        1.57652462517945
C            7.53190875988770        3.24443034016713        2.87022374917523
C            6.86228948246430        2.62724226653087        3.91381930480712
C            6.11632556964436        1.48010062401172        3.67790285720746
C            6.05748210614030        0.94833591873646        2.39789195696469
C            6.74113044029262        1.55614028170766        1.35448862624762
C            7.78372865691750        2.76686967754344       -1.26923174275529
C            8.48156560634895        1.73294658728885       -1.89834811144323
C            7.99918416788676        1.17012629194755       -3.07128024454663
C            6.81010823435771        1.61974466063834       -3.62689133566330
C            6.10087555737778        2.63826302368790       -3.00433593367040
C            6.58961440008393        3.21224170052798       -1.84260827666165
C           10.08333050811422        2.93997044938616        0.42338339192567
C           10.39441944807849        1.84891748721528        1.23884292288543
C           11.70573867906374        1.41254017577301        1.36144292253233
C           12.72316516997427        2.04814557495864        0.66470838860718
C           12.42537759148092        3.12679072735141       -0.15714018081175
C           11.11909792613750        3.57397586302392       -0.26800688317758
C            6.42123902975872       11.71781667357133        1.36678142811231
C            5.43422747149817       12.63733424772923        1.00871698166705
C            4.52631876954353       13.09515989179442        1.95232739546063
C            4.59663323206973       12.65208273720234        3.26557301616202
C            5.57671221186249       11.73953278398761        3.63308620208772
C            6.47234936424924       11.26620284770121        2.68864935209958
C            9.18722644628570       11.97200297154627        0.68492673393912
C           10.37219063256265       11.62742813027039        0.02858616794340
C           11.55579638917817       12.28851556049973        0.31239888517088
C           11.58008715172787       13.28597368001398        1.27819703076584
C           10.41314401425624       13.62325844400919        1.94956585588648
C            9.22238018535946       12.97604223344688        1.65365924239951
C            7.20852817421089       11.79373333353444       -1.38617640599838
C            6.01858794874365       11.34338789188973       -1.96647821149268
C            5.58198937312753       11.85873199885263       -3.17561863573193
C            6.34215983264504       12.81323001369520       -3.83874485913589
C            7.53462937762099       13.25254175078641       -3.28136508755666
C            7.96613816745337       12.75071434263000       -2.06176154934311
C           13.43088584520306        9.07640319947571       -0.66986929954096
C           13.01616813704134        9.42362266090599        0.61962899418042
C           13.92522909087374        9.89611416630361        1.55221953246551
C           15.26829026778683       10.00587133572855        1.21641100123026
C           15.69512125784915        9.64545035156889       -0.05440790240565
C           14.78469717741567        9.18556228429994       -0.99448449965006
C           13.08197783279125        7.44145369594155       -3.01081189626760
C           13.14973383725790        6.06788806286232       -2.76614741778933
C           13.82219258092770        5.22544136845074       -3.63586801942083
C           14.42461129920441        5.74333196889806       -4.77452701517207
C           14.35753064742465        7.10554466355811       -5.03359973498813
C           13.69346063384030        7.95234717559397       -4.15846156315019
C           11.65023809270297        9.90774971229505       -2.78886208029516
C           12.45888787281340       11.02795010544939       -2.99432817306310
C           12.00154209522481       12.09038735528264       -3.75970812689665
C           10.73721422917146       12.04819710385507       -4.33141533184233
C            9.92178211558286       10.94265062870382       -4.12794327933307
C           10.37321753133978        9.88410278076464       -3.35704136582715
C            2.63656238083762        6.55035018925528       -2.34441268878757
C            1.28736509550318        6.91022822328997       -2.39564096849815
C            0.30578168634137        5.93445993206636       -2.48377501201555
C            0.65512866114564        4.59137679968498       -2.52471060963802
C            1.99265984782558        4.22262351054284       -2.47529439049171
C            2.97448604086100        5.19509860325437       -2.37926044156340
C            4.29134544252570        8.32149100507864       -3.90151738760408
C            5.55844491645247        8.83658684651753       -4.19197576289940
C            5.86459461883412        9.28880480212765       -5.46511047832632
C            4.91443565674969        9.21056879741083       -6.47498959458015
C            3.65970921716547        8.68223313426887       -6.20389652001698
C            3.34631319428167        8.24176927373627       -4.92637143644828
C            3.24531633287042        9.16992428807057       -1.35029017703854
C            2.51512288355960       10.16567666735750       -2.00353830528345
C            1.96606153510102       11.21682184884949       -1.28422501343914
C            2.13531917275214       11.28737973516636        0.09187504479077
C            2.86512607935079       10.30695714148167        0.75088098423634
C            3.42037058247365        9.26001350197912        0.03374673160299
C            8.44106637541856        7.09212127499441        6.25576411113586
C            8.42734387688831        5.70667107509521        6.07559646887275
C            8.97001151741873        4.86286709412033        7.03063417620334
C            9.54814759709907        5.39403283581138        8.17576984500893
C            9.57404827273761        6.76932489588817        8.36361593737619
C            9.02308621867789        7.61578764917967        7.41295810563384
C            8.57930790551291        9.70645689336948        5.08258904413360
C            8.19330237326772       10.72552201684577        5.95604320623472
C            8.90601686518551       11.91462537539573        6.00231648114021
C           10.01145954371222       12.10089857808988        5.18352799721048
C           10.40176114466102       11.09626854462098        4.30773444607321
C            9.68624076687126        9.91156091070772        4.25339212764202
C            6.01651976372201        8.43521692432589        5.50493477851416
C            5.04958373031052        8.69150897322636        4.52802691527343
C            3.73434308048408        8.94380844433468        4.88304205985941
C            3.36033473885543        8.91898348895183        6.22012844574902
C            4.30700028675558        8.64436560583044        7.19759843075327
C            5.62736458635935        8.40611005180567        6.84584235078867
C           12.83561535869780        7.13420176925337        4.28766890943880
C           14.06989547876611        7.76286133321915        4.12082195518053
C           14.40830389475434        8.85892449668422        4.90223745430849
C           13.52072362690038        9.34276444254486        5.85325612056548
C           12.28760316011077        8.72633307468947        6.02349383111033
C           11.94527339333519        7.63520989790704        5.24281640129574
C           11.98115454060136        4.41662723371275        4.47373537894105
C           12.68837569668844        4.30521800165541        5.67393409071828
C           12.40740665922311        3.27412472984743        6.55713778187735
C           11.42097065630308        2.34327562201898        6.25773936435931
C           10.70784175567105        2.44811050730333        5.07035088734327
C           10.98566154428678        3.48033193568184        4.18896851151838
C           13.73258184560536        5.24066026919722        2.31702428638596
C           14.58150754675273        4.19655215403745        2.68585649729072
C           15.65824881156349        3.85384312227669        1.88076492391267
C           15.90263413747486        4.54711026092948        0.70289982600662
C           15.06207898170849        5.58655060274524        0.32468292324303
C           13.98138470115575        5.92409583139892        1.12287793605809
C            7.27897285406323        4.85651159851366       -5.49713099049819
C            6.03312263134377        5.35454542189983       -5.10524057107372
C            4.86144975419085        4.81042428813493       -5.60576147896339
C            4.91966039273452        3.74693044158989       -6.49740577859412
C            6.15141876571573        3.23633708831115       -6.88499804805917
C            7.32546022432396        3.78604487393775       -6.39120971573320
C           10.09385557647811        4.42579613293837       -4.99027973744192
C           10.44349535006788        3.61876537796925       -3.90638446491476
C           11.45719186024341        2.68075453032936       -4.01529550119612
C           12.14384595987692        2.54249930435404       -5.21465418783842
C           11.81378376105545        3.34735256091483       -6.29737026223710
C           10.79659922137635        4.28336695403646       -6.19001412546741
C            9.18285013607118        6.98178656258402       -5.88024538417188
C           10.43128352774900        7.59150463142925       -5.71820377571489
C           10.79371116732116        8.67513141137790       -6.50073725445867
C            9.90981297645439        9.17524510569589       -7.44835081854503
C            8.66523496791330        8.58279179286215       -7.61130416244200
C            8.30003630280257        7.49445227027734       -6.83167149962315
C            3.82194012683278        4.33515982012422        4.07299702701321
C            4.65963808440955        5.06879149648303        4.91865067016002
C            4.88332620311501        4.66152700350953        6.22362712215196
C            4.28171480965369        3.50290111852336        6.69840054861288
C            3.45690458085185        2.76026465897193        5.86415933099273
C            3.22574121635221        3.17115810299112        4.55926834721829
C            2.26569917470770        6.13458445609133        2.45270906326841
C            1.77565855226393        6.63397779726986        1.24167593521560
C            0.76381797546540        7.57899198725336        1.22569505170160
C            0.23341961511791        8.04914046344647        2.42036411287521
C            0.71811372711687        7.56601012134346        3.62783318184341
C            1.73005069589967        6.61612727361756        3.64746278305007
C            2.92738197107415        3.57089868706523        1.41697595403936
C            1.58014934064810        3.20499791313334        1.48956744316894
C            1.09907771976595        2.15496643943732        0.72291731197650
C            1.95004590584195        1.45855647978671       -0.12580637875489
C            3.28829793203330        1.81962315009743       -0.21276986217730
C            3.76892735760604        2.87069726105489        0.55157412105260
H            8.10420240510801        4.14581269134345        3.05875317680036
H            6.91416065444138        3.04818213508391        4.91130988819758
H            5.58010716045998        1.00536239024969        4.49108931824538
H            5.47659701957558        0.05357960917635        2.20661332294830
H            6.69454897809035        1.12484089522406        0.36138412543139
H            9.40789228321526        1.36696863247680       -1.47125248029020
H            8.55835215289390        0.37590770731868       -3.55206716043264
H            6.43681506823800        1.18186960805310       -4.54512266593280
H            5.17072777596850        2.99492587730628       -3.43149565357519
H            6.03869697536479        4.01812956893070       -1.37047579663074
H            9.60846920119302        1.33718675806073        1.78171567986932
H           11.93070039277119        0.57045132459050        2.00554273134646
H           13.74732485952730        1.70820900508431        0.76323457186129
H           13.21541411383084        3.62772415700437       -0.70440595772704
H           10.89525129136988        4.42535052294054       -0.90116587479932
H            5.37340442213138       13.00139897009992       -0.00996640283937
H            3.76534502128314       13.80926602878261        1.65946507673582
H            3.89157183559961       13.01799077340824        4.00254876392054
H            5.64265236878788       11.39405359107434        4.65817504674144
H            7.23106987180519       10.54520486169458        2.97494399281552
H           10.35736913884729       10.83805430308268       -0.71558336123802
H           12.46182516523729       12.02233282643685       -0.21950589946500
H           12.50698949510344       13.79906555196726        1.50567083284069
H           10.42574383476362       14.40108142016024        2.70432889328780
H            8.31724899690323       13.25582385651014        2.17953840241995
H            5.42967118267511       10.58929446226907       -1.45509238183458
H            4.64767467719187       11.51213087486166       -3.60189196667216
H            6.00428211661000       13.21364749175744       -4.78723765425883
H            8.13147778386956       13.99840309329338       -3.79357275995582
H            8.89527448958493       13.10980626067633       -1.63510055186185
H           11.96995883087283        9.32132226290037        0.88926003248722
H           13.58511864271260       10.17107807916824        2.54423232713704
H           15.98213871449795       10.36738217440762        1.94725432541203
H           16.74375655571980        9.72316405704489       -0.31700615625341
H           15.12797551072955        8.90416389576354       -1.98356845555566
H           12.66169241231126        5.66349279648335       -1.88616961977380
H           13.86614442603589        4.16203398508980       -3.43033113560726
H           14.94203719390983        5.08440943098555       -5.46183516245125
H           14.82422566232614        7.51297374160925       -5.92291536570939
H           13.64415041564330        9.01423055642831       -4.37135051989283
H           13.44773314178315       11.06922525368118       -2.55170806640700
H           12.63758852199844       12.95453142025661       -3.91239129058059
H           10.38540469586543       12.87802326745400       -4.93309391459332
H            8.93141661947987       10.90608465981264       -4.56789146231288
H            9.73207888588232        9.02400234642274       -3.19335711221105
H            1.00399910669681        7.95600921777571       -2.35811234587003
H           -0.73761329875564        6.22557875694267       -2.51907418740393
H           -0.11485871933332        3.83170768322534       -2.59045347309853
H            2.27197800252909        3.17550856057678       -2.50057875255482
H            4.01901927283858        4.90820806709524       -2.32182559756797
H            6.30757399211198        8.88386504618973       -3.40832780785458
H            6.84822695422016        9.69668881995528       -5.66926819387088
H            5.15430309962995        9.55689203025614       -7.47344596184618
H            2.91848602131944        8.61288195096090       -6.99155724528181
H            2.36423401820854        7.82878666065003       -4.72593026490014
H            2.38106502584622       10.12041921537063       -3.07846976701191
H            1.40189225921029       11.98403615711100       -1.80164062306049
H            1.70272919266737       12.10880274585596        0.65090489095971
H            3.00577039151325       10.36023087870925        1.82475521960704
H            3.99671236316778        8.49867240204130        0.54918916401309
H            7.99170255377035        5.29474696362621        5.17161372199670
H            8.95130239469653        3.79015878440273        6.87530003354070
H            9.98237583729964        4.73593886276396        8.91920528109834
H           10.02690865373636        7.18725198098159        9.25520437246757
H            9.05237583349679        8.68867662853576        7.56618253345203
H            7.33049527030010       10.58932207440591        6.59827465697533
H            8.59657603461132       12.69919442276014        6.68300906388049
H           10.56704713909980       13.03046272835065        5.22436353108948
H           11.26158223585152       11.23765061515349        3.66235410846921
H            9.98635382506175        9.13104592410010        3.56171939256115
H            5.33580420923387        8.69353015425420        3.48126629623496
H            2.99970357646503        9.15271052841785        4.11365749830640
H            2.33036207020076        9.10844147493824        6.49881121230309
H            4.01686176614990        8.61630406088142        8.24146760592400
H            6.35836059552555        8.18995884839429        7.61667500428386
H           14.77086203136062        7.39394588755619        3.38091138215643
H           15.37366668506933        9.33360214926543        4.76882635820921
H           13.78856447607256       10.19858893093955        6.46155393933588
H           11.58837294196437        9.09892652955643        6.76350111251449
H           10.97982685075426        7.15776970420611        5.37379323393617
H           13.45542595412832        5.03125731339069        5.91814004731584
H           12.96178499033954        3.19683732478896        7.48524708085021
H           11.20560913319973        1.53874549839031        6.95102315080158
H            9.93204443657470        1.72920460744406        4.83165257768417
H           10.42613708164628        3.56851172705902        3.26425315447891
H           14.39878677487900        3.64836895804205        3.60302355495890
H           16.31120892279184        3.04105337176907        2.17698052553215
H           16.74515769750516        4.27583277891520        0.07774777307555
H           15.24416643312439        6.13230229830008       -0.59459444555865
H           13.31502975690098        6.72517916647881        0.82029010293501
H            5.98820890712520        6.17412124744215       -4.39589249262101
H            3.90414150097244        5.21426940485809       -5.29493652422975
H            4.00553429442857        3.31398980630940       -6.88625091954057
H            6.19952754996165        2.40448620698364       -7.57813871240257
H            8.28159190986322        3.37841309223835       -6.69909087255805
H            9.90981857222841        3.73323731380664       -2.96940520083002
H           11.71306685200159        2.06174686854396       -3.16257032300883
H           12.93831412836283        1.81100036098468       -5.30424799866168
H           12.35197720824359        3.24519690636926       -7.23257909588516
H           10.55018707434194        4.91143084107001       -7.03847714219784
H           11.12263858710530        7.20641006386155       -4.97597847477192
H           11.76715707548613        9.13330593710255       -6.36700189284364
H           10.19184913329202       10.02483963128289       -8.05894623529893
H            7.97382985648724        8.96633508988924       -8.35288318264960
H            7.32597486363086        7.03850122638285       -6.96775767482808
H            5.14199786628583        5.96473634021496        4.54186238808805
H            5.53180898719754        5.24624720356877        6.86677634529141
H            4.45942913972719        3.17718975904802        7.71652941711093
H            2.98867024399388        1.85431844969025        6.23123668587661
H            2.58262103979610        2.58191790161083        3.91564172033797
H            2.19101717254531        6.27023586765741        0.30755811916566
H            0.39104223211032        7.95174962787792        0.27831238136556
H           -0.55688524822314        8.79041276180456        2.40911779454338
H            0.30401770527477        7.92619753250785        4.56262246424801
H            2.10104528046694        6.24550750400304        4.59615078013286
H            0.90701578462396        3.74970429197946        2.14182566750539
H            0.05295569693658        1.87898793141546        0.78732810991847
H            1.56927212248882        0.63795168105460       -0.72239199075270
H            3.95806658176332        1.28632759858403       -0.87815305575022
H            4.81154080890779        3.15964051525848        0.48086829784745
