250
 energy: -375.837396321763 gnorm: 0.000356786862 xtb: 6.5.1 (579679a)
Au          -1.84689793812952        7.87248161798191        3.98005455007757
Au          -1.26021512307587       10.23014979285232        2.27712181412914
Au          -1.05749673015118        7.92142360400945        1.06254658121352
Au           1.11084632930820        9.84982284028990        0.64160705644996
P           -0.09990003110775        6.87413112940728        5.18054698222949
P            1.22726723129823        7.84661325971465       -3.52118801457198
P           -1.32990121266394        5.72775598400453        0.15328196395802
P            3.18402200838218        9.54944378936587        1.76264856691646
S           -3.67286463497738        8.79943421126347        2.83939466639134
N           -6.30702492906334       11.21152612179356        5.62873800466068
C           -0.43691498000521        6.76912232146174        6.96319709690104
C           -1.43151399054582        7.58832690661024        7.50408042102650
H           -2.00210804946700        8.23904217974667        6.84989191501847
C           -1.70157447807367        7.56869753400278        8.86329329933068
H           -2.47662161834428        8.20969671154530        9.26694279797780
C           -0.98493453446854        6.72433336320539        9.70005422017185
H           -1.19778184246122        6.70437879555772       10.76229899571186
C           -0.00012845296967        5.89930784290795        9.17280655059481
H            0.55675763377929        5.23399012755217        9.82226175043012
C            0.27481359157105        5.91922118260211        7.81475115623435
H            1.04139010220301        5.26621925199589        7.41283348781660
C            0.31909696099575        5.18044258919389        4.67860474907244
C           -0.69748769302927        4.41377721879753        4.10028765956531
H           -1.67243625893281        4.86046714734392        3.93396808060533
C           -0.47370732045263        3.09524996699816        3.73920978084641
H           -1.27532827884221        2.51621432692184        3.29560406714698
C            0.77355020547547        2.52178623501686        3.94393900288219
H            0.95089269776240        1.49074137748608        3.66193558769159
C            1.79522385651876        3.27457831983919        4.50730695309817
H            2.77127916286310        2.83179039257952        4.66826059034834
C            1.57343774946541        4.59414396113691        4.87292375772458
H            2.38335776470611        5.16606646679557        5.31030337402041
C            2.84736262940819        7.08461866231565       -3.84410765463882
C            3.89609763857274        7.40532122878378       -2.97902719666816
H            3.72125218974076        8.10011247923410       -2.16430313852891
C            5.15516526768453        6.85639021519249       -3.16173019286787
H            5.95858987111119        7.11752759895306       -2.48263253478419
C            5.38768624863633        5.99050808665865       -4.22113489821591
H            6.37570567934901        5.57305489642780       -4.37395187100493
C            4.35544926715419        5.67334635231395       -5.09375790045944
H            4.53521134903124        5.00493152678074       -5.92767141470101
C            3.09241846458915        6.21321253989342       -4.90835653304859
H            2.29624931790219        5.96375348420708       -5.60054516627304
C            0.41666396165086        7.90535938816596       -5.15116405880328
C            0.42119267799269        9.12666586408541       -5.82919849201596
H            0.88520682119000        9.98889416637759       -5.36116791548695
C           -0.14920680344946        9.25185707778691       -7.08569425405984
H           -0.11902183472907       10.20605529821474       -7.60004902638935
C           -0.75208258225770        8.15322772807065       -7.68305598343901
H           -1.20233730904268        8.24666338006155       -8.66417895707212
C           -0.77404083319132        6.93464181648501       -7.01909299066675
H           -1.24245629083328        6.07331976704464       -7.48109894479730
C           -0.19221638706064        6.80701430755015       -5.76641052757168
H           -0.21217192199684        5.84360311230119       -5.27052048963500
C            0.13972019093856        4.65617358643200        0.21722889843668
C            1.08741715063149        4.95249874441563        1.20040347067072
H            0.92222593800495        5.80257921564447        1.85440424775873
C            2.22492044574800        4.17609757769335        1.35096329141377
H            2.94694551447753        4.42199932997991        2.12102331852932
C            2.43717336828655        3.08910524336467        0.51332130183554
H            3.32554531646934        2.47960363143216        0.62885418961662
C            1.50896541318306        2.78838221907643       -0.47426720102997
H            1.67209507784263        1.94331245157560       -1.13293850876953
C            0.36836746095223        3.56283820207410       -0.62340944870730
H           -0.34299292386965        3.31405326907997       -1.40224381603459
C           -2.64497416442328        4.74520714788384        0.93911513573352
C           -2.64289376110861        3.34959176098104        0.99901428669943
H           -1.82487801962571        2.78813154731157        0.56220978712693
C           -3.68340636974417        2.67402739856190        1.61914704058385
H           -3.67048916547493        1.59097562255300        1.65800235065960
C           -4.73609487788101        3.37872216890562        2.18782624856411
H           -5.54471653058392        2.84673325063024        2.67487169277413
C           -4.74796325967906        4.76581402335810        2.13407950680654
H           -5.56416089008872        5.32361115679199        2.57858620545148
C           -3.70964363577917        5.44338168183303        1.51563303770042
H           -3.72127673708913        6.52794581523370        1.48226880122556
C            4.21104228791006        8.16802578304140        1.17987026358477
C            5.57284035864165        8.07083232888392        1.48067813779775
H            6.04994800064520        8.84422219287650        2.07223430201627
C            6.31652791483378        6.99588172854231        1.02104612608378
H            7.37199212507633        6.93178300859997        1.25847734776002
C            5.71415837126424        6.00502865580724        0.25633074617744
H            6.29812230941823        5.16643824279307       -0.10418439173982
C            4.36309440861288        6.09271565923439       -0.04988149285343
H            3.89019523331670        5.32762928925223       -0.65455518663737
C            3.61691938170663        7.16836963392366        0.40762666038123
H            2.56171777367059        7.23861577777513        0.16318241577192
C            4.28704811447952       10.98834693009256        1.67468517247666
C            4.46443207327092       11.89674334809052        2.72013170981613
H            4.01695623936754       11.70990739035001        3.68958218880581
C            5.21827420278259       13.04718987917198        2.53011865820668
H            5.35241765195545       13.74041587758799        3.35253661210416
C            5.80355992126437       13.30677486850669        1.29824999726254
H            6.39226314418809       14.20507594805211        1.15475289388891
C            5.62901951357077       12.41219632211556        0.24988377171849
H            6.08203470708417       12.60539828205597       -0.71568727554698
C            4.86946039693898       11.26935866942579        0.43305318579222
H            4.71671295397186       10.59078359291405       -0.40010674173305
C           -4.64482173358179        9.70681340755259        3.96834206355213
C           -5.95067691768656       10.01795762552332        3.59307971105672
H           -6.33928801853894        9.67899678357852        2.64059217858276
C           -6.73945536671509       10.76339963399984        4.45412708013689
H           -7.76004907905343       11.01658494666043        4.18440411941739
C           -5.06658287392686       10.90922357230649        5.99558675956380
H           -4.73954373017112       11.28370006903953        6.96091384041865
C           -4.20567484242671       10.16465886052702        5.20588751046650
H           -3.19968450348670        9.95020211759545        5.54662395205632
C            1.49414196113032        7.82489765938420        5.13996235574241
H            1.27448515452917        8.81748269773715        5.54414945147626
H            2.25187544238200        7.38050877875119        5.78967951544380
C            2.02680094918102        7.96711494249289        3.71178857246070
H            1.18019725909544        8.09613728325258        3.02781638385068
H            2.54599608232603        7.05273932748431        3.41236684752615
C            2.96124563049625        9.17223478385787        3.56577292739126
H            3.91095112411251        8.98130825632605        4.07092462944816
H            2.49732397650248       10.04063506709960        4.04185767121911
C            0.33262801625261        6.48714763800314       -2.62404297889830
H            0.79878259478608        6.39996274825585       -1.63797540841805
H            0.45805867381730        5.52202740059535       -3.12220454631868
C           -1.15358111233119        6.80345777830433       -2.45412625681237
H           -1.63253487485489        6.86861321730954       -3.43608316963226
H           -1.26262526155330        7.78256008178778       -1.97418157035342
C           -1.88710016827964        5.75163923236770       -1.61843284161963
H           -1.79352495949973        4.76926221120864       -2.08781893545159
H           -2.95230406445218        6.00249910934994       -1.61336582436541
Au           1.84722245815134       12.26311086584325       -3.98024386635842
Au           1.26011389200025        9.90404059773387       -2.27694177791358
Au           1.05724029842496       12.21258085936331       -1.06178426807349
Au          -1.11066388028035       10.28482503265495       -0.64173791680928
P            0.09984746821756       13.26022774181632       -5.18056463818548
P           -1.22726471954595       12.28777740968792        3.52119124005427
P            1.32990853738699       14.40665447411014       -0.15334010605827
P           -3.18404388185706       10.58495935479786       -1.76265527137737
S            3.67278707831392       11.33488653043536       -2.83945982684170
N            6.30702923050036        8.92284005727613       -5.62876276900229
C            0.43690764953377       13.36527052002695       -6.96320643632766
C            1.43150253619665       12.54606134349834       -7.50409534857085
H            2.00210161479984       11.89534877930731       -6.84990926909418
C            1.70154715894138       12.56568323096363       -8.86331312053004
H            2.47658712665639       11.92467939903707       -9.26696901077714
C            0.98490330868953       13.41004802385677       -9.70007164447077
H            1.19773827841900       13.42999648719413      -10.76231966934670
C            0.00011286521930       14.23508669767697       -9.17281704566856
H           -0.55677182245744       14.90040764744341       -9.82227167025641
C           -0.27481450324552       14.21518380270747       -7.81475850031819
H           -1.04138460918649       14.86819420036767       -7.41284161497339
C           -0.31909389268607       14.95391726212507       -4.67858748786500
C            0.69750682502507       15.72055824924849       -4.10026602503734
H            1.67243817106731       15.27382768982344       -3.93392749317736
C            0.47374347355330       17.03910056544277       -3.73920755997518
H            1.27536545455212       17.61813380027444       -3.29559870527352
C           -0.77350522177691       17.61258648983806       -3.94394823096857
H           -0.95083769195420       18.64363533127884       -3.66194926049555
C           -1.79519084008933       16.85980886276446       -4.50731321857944
H           -2.77124186732632       17.30260747490404       -4.66826808784393
C           -1.57342232455145       15.54023894944944       -4.87292078452256
H           -2.38334592226955       14.96832832151074       -5.31030758810008
C           -2.84735374572347       13.04978122320387        3.84414440680061
C           -3.89609461899495       12.72909242018671        2.97906530613026
H           -3.72125444710664       12.03431007883338        2.16433323017704
C           -5.15516039160488       13.27802518298851        3.16177623603519
H           -5.95858598754010       13.01689817893118        2.48267553213641
C           -5.38767667409631       14.14389766435109        4.22118933476857
H           -6.37569253446224       14.56135947740331        4.37400668472640
C           -4.35543821662246       14.46104030194769        5.09381728972455
H           -4.53519897494762       15.12944563771176        5.92773911654375
C           -3.09240810341911       13.92117158133620        4.90840822000862
H           -2.29623955739875       14.17061892157933        5.60060177299747
C           -0.41664590678619       12.22902974513041        5.15116132990291
C           -0.42119244058968       11.00771443941753        5.82918261276428
H           -0.88521044670476       10.14549533917157        5.36113105685776
C            0.14920184384721       10.88250356673699        7.08568104098924
H            0.11899894922055        9.92830210398427        7.60002896133519
C            0.75209469187455       11.98111782532174        7.68305462893085
H            1.20234272531357       11.88766660640396        8.66417965858008
C            0.77407815805840       13.19970816551839        7.01910126093036
H            1.24251103570514       14.06101628177416        7.48111660319485
C            0.19225446923575       13.32735863132629        5.76641943049459
H            0.21222923768858       14.29077450874672        5.27053954687892
C           -0.13972480864750       15.47823370387379       -0.21725394553263
C           -1.08742484008425       15.18192106002326       -1.20043217037083
H           -0.92223570883852       14.33185623999268       -1.85445179328042
C           -2.22493371199195       15.95831408206304       -1.35097682341132
H           -2.94695857548754       15.71241773945609       -2.12103848131959
C           -2.43719454353128       17.04528972547580       -0.51331712306700
H           -3.32557478488246       17.65478194745058       -0.62883581752816
C           -1.50898356636652       17.34600560632013        0.47427074791722
H           -1.67211859265953       18.19106590212841        1.13295259882690
C           -0.36837986736552       16.57155660105365        0.62340029934334
H            0.34298107776024       16.82034081280230        1.40223488077843
C            2.64498951519772       15.38922559818453       -0.93914079553649
C            2.64289980173039       16.78484067894241       -0.99903608610832
H            1.82488150630600       17.34629574363296       -0.56222902909214
C            3.68340634738080       17.46040891667812       -1.61917270315532
H            3.67048312704276       18.54346000275903       -1.65802852503877
C            4.73609481109210       16.75572160296325       -2.18786171500130
H            5.54470823752804       17.28771358735233       -2.67491627058891
C            4.74797521561710       15.36863153041058       -2.13411392302679
H            5.56416714161059       14.81083572341487       -2.57863201465899
C            3.70966828559105       14.69106085326296       -1.51565738262127
H            3.72132127025800       13.60649934485373       -1.48228769272865
C           -4.21103277268077       11.96638886984576       -1.17985740699674
C           -5.57282712413529       12.06359947379905       -1.48066856030659
H           -6.04993825807612       11.29022145542125       -2.07223756114754
C           -6.31650469998542       13.13855155861200       -1.02102709854337
H           -7.37196765571304       13.20266126987076       -1.25845954030249
C           -5.71412672850691       14.12938916100338       -0.25629826933835
H           -6.29808418461635       14.96797927303073        0.10422750837151
C           -4.36306304900025       14.04168703396657        0.04991305905001
H           -3.89015790558703       14.80676239735659        0.65459592660703
C           -3.61689779756838       12.96603012112381       -0.40760504393643
H           -2.56169649362187       12.89576905640837       -0.16316015022394
C           -4.28708071132541        9.14606710365168       -1.67468632770787
C           -4.46445770642965        8.23766819362969       -2.72013005046033
H           -4.01698654126948        8.42450856665171       -3.68958164648440
C           -5.21828780619514        7.08721521703066       -2.53011374258728
H           -5.35242559331557        6.39398658722060       -3.35253007524356
C           -5.80356883133089        6.82762730937474       -1.29824359846098
H           -6.39225661589865        5.92931698444357       -1.15474119691111
C           -5.62904338740573        7.72221436104906       -0.24988199880960
H           -6.08206353550446        7.52901462678623        0.71568724513898
C           -4.86949210989617        8.86505682978531       -0.43305423099662
H           -4.71675365213006        9.54363942892246        0.40010152322134
C            4.64479520987722       10.42752425526767       -3.96837375860237
C            5.95066154887844       10.11641693780196       -3.59310970454987
H            6.33926776315148       10.45538991450095       -2.64062360978642
C            6.73945164185378        9.37098171623071       -4.45415407253775
H            7.76004397845850        9.11779528041364       -4.18442726024507
C            5.06658765366825        9.22513280939780       -5.99562106559955
H            4.73955090002201        8.85064718090250       -6.96094439144988
C            4.20567098043812        9.96968164347440       -5.20592646824650
H            3.19968448388084       10.18412418636917       -5.54667529759378
C           -1.49420226510521       12.30949037948762       -5.13997962464540
H           -1.27452568173519       11.31690951538659       -5.54416509479969
H           -2.25193427564329       12.75388625027760       -5.78969267672626
C           -2.02681936277890       12.16728720095729       -3.71179085714775
H           -1.18021254322602       12.03825430490088       -3.02782711797534
H           -2.54599821275567       13.08166971715060       -3.41236364546887
C           -2.96126049781711       10.96216898809689       -3.56577354965610
H           -3.91096450617363       11.15310157033227       -4.07092367686067
H           -2.49733605802214       10.09376819175891       -4.04185428996738
C           -0.33263375809462       13.64726096257523        2.62405710526612
H           -0.79880541144005       13.73448533986131        1.63800299809041
H           -0.45804572303582       14.61236291810930        3.12225753072127
C            1.15356072144864       13.33092155713368        2.45406477346860
H            1.63255079899514       13.26570605647272        3.43600184988338
H            1.26255156909637       12.35183947191962        1.97405558903089
C            1.88710434748412       14.38273126240535        1.61838054849787
H            1.79356320395035       15.36512078994618        2.08774864456240
H            2.95230140197261       14.13183655124966        1.61332553472217
