374
 energy: -496.706753626822 gnorm: 0.000590947599 xtb: 6.5.1 (579679a)
Au          25.20033790199573        0.59421163925946        3.17490426735321
Au          23.66875022793034        2.57915995171690        4.31613399723811
Au          24.40797482341754       -1.59657081142190        1.96776369184241
Au          26.20751954815274       -0.01346181133739        0.83228327234180
P           21.55006779739124        3.58016001026496        3.78584586894039
P           23.18691568988852       -3.61596091446611        1.54208072098748
P           27.61324899408628        0.49381935603254       -1.02896548086938
C           21.78473883899469        4.75123667098000        2.39205228528619
C           21.36667777420104        6.09744141859800        2.38005932809424
C           21.82579831165878        6.95726392637928        1.38574268037561
C           22.66835795833830        6.52646288499682        0.37168612887033
C           23.00964333411111        5.17910255082429        0.33385484862344
C           22.58080672665959        4.29796860431548        1.31677873053843
C           20.38806991496440        6.68215792642425        3.36330919802607
C           23.17474168090278        7.47192506983588       -0.67823101378661
C           22.99593616323569        2.85990659544776        1.15264576279195
C           20.95079051701095        4.49250031729626        5.26045464791719
C           19.69728711695558        4.31443633431008        5.87911716612700
C           19.44594569475837        4.89160189613482        7.12084744186597
C           21.59396323229952        5.91966728721187        7.12362825318270
C           20.10029591280497        6.29993676400707        9.10602554986176
C           21.89130049241262        5.33012839976096        5.90066718804459
C           18.55774534833938        3.55734821957759        5.25238913460343
C           20.38301168216355        5.68477021586457        7.76648823593860
C           23.25239336141680        5.62647962117893        5.32847437731297
C           20.35131015413516        2.28198705149608        3.27972909665431
C           19.53822868246861        2.33500086094117        2.12824607610762
C           18.83924122016147        1.20343887539059        1.72003948094235
C           18.89259053628949        0.00853561640132        2.42501620360370
C           19.64586731410289       -0.02813997383336        3.59176238892044
C           20.35991096938172        1.08311235805914        4.02382457390584
C           19.31985752475653        3.57958668512645        1.31122878692490
C           18.10719296641347       -1.18728225708593        1.97152066547178
C           21.09551106214840        0.93106873792490        5.32723833028341
C           22.58138198581678       -3.50065415664864       -0.18596432456708
C           21.95793331318948       -2.28350836136937       -0.53893930739486
C           21.64769491484203       -2.00819171969712       -1.86464429160762
C           21.94178033430125       -2.91208303208567       -2.87925747782801
C           22.50561541792162       -4.13088143196052       -2.52565796204142
C           22.81408616930148       -4.44576364048004       -1.20525263712588
C           21.58746474666031       -1.23297265591873        0.47501115616973
C           21.61268366330871       -2.59868651465307       -4.30971017696742
C           23.35048782672955       -5.83111771218565       -0.95958284954235
C           21.73026510766446       -3.87748770686541        2.63854820914078
C           21.88404026492225       -3.51320656861959        3.99257298031202
C           20.80084812705789       -3.52060999804424        4.86127269398841
C           19.53487726889378       -3.89892941804539        4.43349498706896
C           19.38905317735971       -4.30544179343068        3.11340311387231
C           20.45449610518166       -4.30493498292328        2.21641258696251
C           23.21525050319541       -3.12946538935496        4.57428614605829
C           18.37206115791511       -3.91446772538472        5.38241581107141
C           20.15686842406479       -4.81633266705206        0.83331467463460
C           24.37525290353565       -5.00799834334740        1.70737844838268
C           25.64041314439669       -4.82152439888694        1.10616394562957
C           26.68867071635465       -5.69279979500416        1.37057006512761
C           26.52635146880617       -6.78710937922684        2.21135638762848
C           25.26617067105008       -7.01237125609620        2.74556920051206
C           24.19646354536433       -6.15283596739355        2.50891917032082
C           25.94010077709784       -3.70822395241070        0.14003194594594
C           27.67490466924888       -7.71479668228856        2.48339605817682
C           22.87529955281941       -6.55693209465296        3.10539013784003
C           27.13656345517200        2.09079062786592       -1.79498772378152
C           26.85402357840295        3.15115441794789       -0.90852597387050
C           26.35821617731711        4.35935593069164       -1.38346486053823
C           26.12084348990230        4.55868276943767       -2.73768843746544
C           26.42389603782049        3.52516942921654       -3.61411017652171
C           26.93578864742263        2.30905191560315       -3.17337794923612
C           27.08378214368333        3.05198820285681        0.57373425158378
C           25.56068537351555        5.85614882868593       -3.24322740853738
C           27.29008307021777        1.30563616015155       -4.23714657600345
C           29.35561572906503        0.59145475710076       -0.45308839068917
C           30.23678726954405        1.66818647175625       -0.68177099555062
C           31.42851099139917        1.75569624601217        0.03318452674308
C           31.80911762469126        0.78971764319166        0.95339808445847
C           30.98033231088591       -0.31387457430354        1.11884860972098
C           29.77446291063380       -0.42072138953590        0.43766251978859
C           30.00486657078777        2.73744916547119       -1.71500889988176
C           33.10116323426674        0.89633032066234        1.71014051093987
C           28.96338330423038       -1.66113831414203        0.69579613382789
C           27.39936931374415       -0.86537128687498       -2.23877653701068
C           26.07084714242214       -1.28065009732685       -2.47412540061747
C           25.81280651684429       -2.46893271523118       -3.14518402908706
C           26.84456103141684       -3.27650766918870       -3.60849560361490
C           28.14897867382210       -2.82616462465193       -3.45066462581556
C           28.44181546551604       -1.63605505226816       -2.79155795834787
C           24.87111614364465       -0.48147577167246       -2.03876485253452
C           26.55076290036288       -4.57122976065962       -4.30865287466582
C           29.88885912457756       -1.22182097190130       -2.75659655578767
Au          24.77260232067420        0.59328408232510        5.87769631678772
Au          26.30406177434176        2.57994615314953        4.73611195157234
Au          25.56463099514991       -1.59618226167333        7.08486219905688
Au          23.76444005495416       -0.01408491882408        8.22145430943593
P           28.42264486936475        3.58014950611989        5.26706930755162
P           26.78572734413307       -3.61593362629744        7.51077007597454
P           22.35939813985095        0.49385954257472       10.08189020893146
C           28.18795061680708        4.75122514176088        6.66085648419108
C           29.02186948868843        4.49245012167609        3.79242154323402
C           29.62139116957568        2.28196964320285        5.77316770685358
C           27.39128618012344       -3.50065829846987        9.23881977880797
C           28.24238516207084       -3.87751301063026        6.41431763323078
C           25.59741460266725       -5.00800659756516        7.34551048031963
C           22.83608888862892        2.09082827301221       10.84788784026243
C           20.61707006440749        0.59148749001982        9.50592597439090
C           22.57329659388263       -0.86538751540230       11.29161969812020
C           28.60600119327468        6.09743279685213        6.67283367799291
C           27.39188770925166        4.29796357092101        7.73613836595555
C           30.27538000723984        4.31440786254778        3.17376641533384
C           28.08135393112731        5.33007434369599        3.15221490095224
C           30.43446949378756        2.33498526448793        6.92464751914509
C           29.61277752669352        1.08309820360553        5.02906825091276
C           28.01473535514335       -2.28351496721437        9.59180661609009
C           27.15858565840093       -4.44576622914990       10.25811511957066
C           28.08859608976859       -3.51329013562644        5.06027869462056
C           29.51818187624293       -4.30487361730820        6.83646314682730
C           24.33224939711411       -4.82153487148452        7.94671669511500
C           25.77620578128462       -6.15285722288848        6.54398399424809
C           23.11863424962505        3.15118125238903        9.96141774249996
C           23.03687374776961        2.30908517774596       12.22627362339246
C           19.73587818914448        1.66819919758946        9.73462197736047
C           20.19823626996271       -0.42069613265881        8.61517971932486
C           23.90181882200122       -1.28066334761090       11.52696106573848
C           21.53085363726212       -1.63606597936324       11.84442092921732
C           28.14687445512562        6.95726125345720        7.66714156293633
C           29.58460326407337        6.68214646257777        5.68957538531598
C           26.96303545007575        5.17910544071441        8.71904514797342
C           26.97677264374194        2.85990536987278        7.90031562747680
C           30.52672574524473        4.89159003468209        1.93204572985346
C           31.41492761848288        3.55733162169333        3.80049892588444
C           28.37870140976212        5.91964256890432        1.92926771151479
C           26.72025778806928        5.62640567978805        3.72441343712333
C           31.13345395886942        1.20342276983040        7.33285060925463
C           30.65283344763938        3.57957650501530        7.74165769993393
C           30.32681780924289       -0.02815589868608        5.46112680091689
C           28.87716835692794        0.93106620245872        3.72565578733036
C           28.32496969605067       -2.00819435627645       10.91751271932471
C           28.38519342519086       -1.23296808964928        8.57786573001306
C           27.46705377418052       -4.13088068906841       11.57852214119473
C           26.62218009544716       -5.83112162999475       10.01246197994052
C           29.17178775089763       -3.52065048701852        4.19157673312980
C           26.75735960659595       -3.12966842181559        4.47855061232501
C           30.58362875813972       -4.30532251824516        5.93947494300900
C           29.81583476711203       -4.81626310242605        8.21955861447047
C           23.28399020597925       -5.69281047756376        7.68230984480572
C           24.03255621309594       -3.70822298105539        8.91283613095943
C           24.70649728653275       -7.01239325696227        6.30733511807115
C           27.09736982060254       -6.55696249810844        5.94751812455207
C           23.61445552602218        4.35937940380044       10.43634707824797
C           22.88888247940477        3.05200525723560        8.47915715751738
C           23.54877425554270        3.52520070906649       12.66699618150131
C           22.68259008987556        1.30565864546092       13.29003639450221
C           18.54415303273802        1.75569415199150        9.01966774194178
C           19.96778623854251        2.73745276267460       10.76787271933940
C           18.99235138340749       -0.31387499934117        7.93401054888179
C           21.00934078725354       -1.66109964654650        8.35705907649125
C           24.15986606087571       -2.46893284999428       12.19804522280367
C           25.10154071758818       -0.48148052558187       11.09160169280850
C           21.82369727153774       -2.82616980296196       12.50353507113287
C           20.08380812325498       -1.22183311417291       11.80947427124569
C           27.30431374419141        6.52646583721654        8.68119974058760
C           29.58965867848725        5.68476075369357        1.28641011498479
C           31.08009801558191        0.00852146266391        6.62787136836646
C           28.03088697234746       -2.91208301032212       11.93212767496181
C           30.43778505163623       -3.89886641321257        4.61936683542052
C           23.44631085606132       -6.78712839893046        6.84153548707669
C           23.85182849798153        4.55871047192404       11.79056970152972
C           18.16355385110915        0.78971094740223        8.09945608061387
C           23.12811613851258       -3.27650841680462       12.66136832214967
C           26.79792753852859        7.47193277524156        9.73110973886679
C           29.87238230704913        6.29993666399797       -0.05312182669057
C           31.86549658730344       -1.18729307450722        7.08136641479701
C           28.35998380206373       -2.59868661830438       13.36258189337744
C           31.60059891740091       -3.91440448536312        3.67044157313126
C           22.29775872980862       -7.71481969234511        6.56949684675989
C           24.41197825212391        5.85617757048712       12.29610936474590
C           16.87151103571541        0.89632421944014        7.34270735175701
C           23.42191039619241       -4.57122874524001       13.36153181640112
H           16.51250521815038        1.92485507668172        7.32595260313414
H           16.99562573860715        0.54516183459039        6.31778133978705
H           16.11025518962111        0.27645250387115        7.82105438288933
H           23.51093945213306       -4.39834610645132       14.43613781195022
H           22.61976477824697       -5.29084719891552       13.19961403323701
H           24.36058570679173       -4.99807484155177       13.00774881436826
H           17.93674894545531       -1.15732413886013        0.89572852214829
H           18.62892362474291       -2.11012261277976        2.22339827622537
H           17.13604925858339       -1.20160636511708        2.47097111523830
H           21.29258444081450        1.88558750131615        5.80976472976099
H           20.50913691501550        0.32132142809207        6.01474534329328
H           22.04640025899958        0.41971161548086        5.16470372865634
H           18.22296551488950        1.26490008706528        0.82945474548721
H           19.67698756707934       -0.93616179996520        4.18545036644433
H           18.67894809334115        2.48223502425110        5.38812877464640
H           17.61757320607491        3.85015135741470        5.71991776820525
H           18.48653635829137        3.76404559889291        4.18644869876226
H           23.24656587581307        5.66647981700747        4.24161732149960
H           23.62278662575360        6.57990312283849        5.70559804111468
H           23.96109557298481        4.85376862188544        5.63726507298555
H           20.12576623663034        3.72212568201483        0.59042484646152
H           18.38557305822436        3.49697465666601        0.75575199950234
H           19.26177532264913        4.46208099228798        1.94434759170277
H           26.46165922539433       -4.39833703941990       -5.38325105636853
H           27.35293883071444       -5.29082684800761       -4.14679232517498
H           25.61212120708358       -4.99810335864486       -3.95481374042480
H           25.09436329856810        0.57766612923310       -1.93217141224586
H           24.06584736789496       -0.59054810050468       -2.76593756244646
H           24.49655153255397       -0.85228807954783       -1.08227867008890
H           30.38091816928162       -1.58682692618737       -1.85383618731625
H           30.41239217694223       -1.64284134707365       -3.61511841883053
H           29.99238455135270       -0.13922349139367       -2.79017655801364
H           28.46923104736855        7.99280031237122        7.64793732135365
H           29.07217300141652        7.06076210355763        4.80403410475376
H           30.11291863319120        7.51666593820507        6.15096958576852
H           30.32033294173643        5.94611815590534        5.37293347148525
H           20.62196095610025        3.52078125434428       10.38366058690270
H           19.01843205724397        3.19898250536754       11.04010771867977
H           20.41628102817518        2.32424107004278       11.66877084567369
H           25.18994412929313       -2.77082415137143       12.35582150795545
H           23.45932337732144        0.54589607217833       13.38410530060931
H           22.58406661125960        1.80522179902507       14.25373098131260
H           21.74083080453088        0.80896979228838       13.06586926237402
H           25.70693416296412        7.50142852049666        9.71326759091459
H           27.10850207523088        7.13747853124172       10.72226934759652
H           27.17678476925879        8.48000322983354        9.56773958384168
H           29.03280867925069        6.13738844133297       -0.73069846367434
H           30.01409505149423        7.37718357319452        0.05244577498821
H           30.77227374540122        5.87524343866230       -0.49648999250058
H           21.43122211772808       -7.15288096366002        6.21774411991829
H           22.56375112703302       -8.45937919859519        5.82018660256797
H           22.01080995377267       -8.23301506825721        7.48633876610117
H           24.15685960761958        6.67710066416339       11.62613060159289
H           24.03355446907789        6.08064391115411       13.29312395995893
H           25.50059905992281        5.78906001843810       12.35505957787262
H           24.87827920675170        0.57765708314232       10.98499690011916
H           25.90681461031047       -0.59054467794442       11.81877142357742
H           25.47609957392688       -0.85229881491813       10.13511760789821
H           21.56775581185003       -1.97293860159208        9.23605687097052
H           20.35842831905948       -2.48247123999344        8.05712724877891
H           21.71885078087349       -1.48494622447864        7.54536553864216
H           19.59174536369128       -1.58684081265654       10.90671683175727
H           19.56027698563111       -1.64285154473076       12.66799858088485
H           19.98027974930822       -0.13923568737316       11.84305239141528
H           21.00601614923945       -3.41374803194580       12.90716194133675
H           32.03593239451668       -1.15733771934496        8.15715976427006
H           31.34376879113124       -2.11013206221923        6.82948109183890
H           32.83664236715061       -1.20160980693525        6.58192024393299
H           28.27453565201925       -1.52924811448391       13.55462999663799
H           27.69755870611158       -3.13646691062933       14.04032248299065
H           29.38669909844282       -2.90104380167691       13.57935606606311
H           18.69295510454721       -1.11252372785763        7.26298039602319
H           31.49987118206198       -3.12699022676472        2.92285170859185
H           32.54079602172799       -3.77879185728664        4.20418002775483
H           31.63957464757096       -4.87301474729000        3.14874058958575
H           17.88952480746600        2.60157924137711        9.20135437457727
H           21.50343963491450        7.99280273927069        1.40493985998412
H           22.42552988206048       -0.55172543765244        0.64023763835747
H           20.74878160459086       -0.63714902986754        0.11381983353351
H           21.31048968846713       -1.66702283606400        1.43377705532579
H           18.41935365179182       -4.65005119943438        2.77057742360491
H           21.69808396175975       -1.52924177279833       -4.50174330772747
H           22.27514181296532       -3.13642959053195       -4.98744822431929
H           20.58598517157205       -2.90109227980033       -4.52649473131723
H           23.03002385367266       -6.22051524728241        0.00415024332705
H           22.99376378857954       -6.50634399898207       -1.73753166805880
H           24.44117650128744       -5.83800977412559       -0.98696143503626
H           20.95562927329641       -3.23669466201930        5.89637958682333
H           21.16736018408046       -1.06651979588984       -2.10869269175540
H           23.41665802798252       -2.07006451825963        4.40238526262199
H           23.22634658652298       -3.30102900689727        5.65106247861434
H           24.02012608769972       -3.70738217862620        4.12657121818967
H           18.47276837473846       -3.12701206465146        6.12996501660600
H           17.43186581755060       -3.77890098478732        4.84866236155610
H           18.33310549145213       -4.87305390820857        5.90416154968449
H           20.95834959165536       -5.45375248380430        0.46693294297016
H           19.23557895240541       -5.39867312082834        0.84280098501215
H           20.02419335726119       -3.99033502728441        0.13377140903675
H           27.65012625014946       -5.51615260436808        0.89964974545708
H           25.10107746523516       -7.89132083217056        3.35918116579338
H           26.38708010994889       -2.86776670224099        0.67185008467984
H           26.65844926920461       -4.04235897293493       -0.60925915578985
H           25.05428955989692       -3.34948798208511       -0.37678127703376
H           22.70263853752846       -4.86814938751555       -3.29671943938120
H           18.48094984056051        4.72365405223997        7.58725718097965
H           20.93986780992836        6.13736824069066        9.78359958857666
H           19.95860168921507        7.37718722838558        9.00046885779764
H           19.20039802883088        5.87525285944187        9.54938886802419
H           22.32703344645932        6.57204167362580        7.58651721607338
H           20.90049995487893        7.06079208241353        4.24884245806007
H           19.85974447373009        7.51666536399855        2.90190438221351
H           19.65234936311516        5.94612603148852        3.67996388660943
H           23.62299187529090        4.80290006317735       -0.47856224124384
H           24.26573555238186        7.50141315440544       -0.66040194781917
H           22.86415399023837        7.13747147248569       -1.66938672072857
H           22.79589496999606        8.47999967965769       -0.51486119779603
H           22.29019200098902        2.16889372318022        1.60872732948199
H           23.08383036800732        2.61065245432848        0.09458804892520
H           23.97516779023900        2.70030768392983        1.60854897852438
H           29.35068073059827        3.52076782594038       -1.33079535534257
H           30.95421766606404        3.19899129373565       -1.98723302368568
H           29.55638368131606        2.32423833551335       -2.61591257871990
H           22.06048896156463       -6.40023796522791        2.40191726817430
H           22.89726416172502       -7.61430157438547        3.36928234777174
H           22.66494777828775       -5.98921091115275        4.01238756474590
H           25.81581639859716        6.67707569762842       -2.57325807459348
H           25.93908620417951        6.08061319939588       -4.24025123606490
H           24.47206313635795        5.78903137150306       -3.30215402794114
H           24.78273186870370       -2.77083613636262       -3.30295799515747
H           28.54144122514367       -7.15285193292522        2.83513925582897
H           27.40891467811193       -8.45934895162324        3.23271440270530
H           27.96184566808272       -8.23299859851985        1.56655576806539
H           28.96666013230456       -3.41374277816565       -3.85428979295623
H           26.16459022805071        5.16251583299727       -0.67981026468390
H           31.27974015573993       -1.11251448592728        1.78988328368878
H           28.40500369384154       -1.97301697079303       -0.18320875884534
H           29.61429838916723       -2.48249320241822        0.99575764782283
H           28.25385048194017       -1.48497835766718        1.50747253695311
H           33.46015704907093        1.92486484756849        1.72691390950198
H           32.97705391672329        0.54514466954578        2.73505905075188
H           33.86242237168314        0.27647545130448        1.23177655953416
H           26.27426283241720        3.67312340535739       -4.67822204642451
H           27.97405437481614        2.47458597607228        0.81656622674943
H           27.19316037044721        4.04625735065925        1.00358288147557
H           26.22674917575945        2.57930318055967        1.05723350473366
H           32.08313565106794        2.60158369115040       -0.14850266266906
H           26.51335743270892        0.54586712469121       -4.33122012245711
H           27.38859957446555        1.80520687495635       -5.20083850630837
H           28.23184872049536        0.80895871098852       -4.01298358061593
H           28.68009153259235        1.88558997300914        3.24313837986862
H           29.46352972287925        0.32131435759291        3.03814139573391
H           27.92627753066745        0.41971468698758        3.88819045060981
H           28.80529477975445       -1.06651605249987       11.16155549627633
H           27.54711395560096       -0.55173781347100        8.41263945497190
H           29.22386277444911       -0.63712994747931        8.93906348473098
H           28.66218270991883       -1.66701267953936        7.61910216591810
H           31.74973146252164        1.26488206323006        8.22343356631741
H           26.55586751939686       -2.07027946453796        4.65043407318930
H           26.74628142942866       -3.30125096281418        3.40177780505635
H           25.95253115379859       -3.70764527063264        4.92627328376479
H           26.94263766262902       -6.22052888537662        9.04873110353489
H           26.97890736810975       -6.50634238453980       10.79041460976161
H           25.53149151214782       -5.83801147972965       10.03985041391676
H           31.29373253724809        2.48221779766937        3.66475803602221
H           32.35509948009529        3.85014179303063        3.33297422857192
H           31.48613163048569        3.76402808939627        4.86643988648619
H           31.55335669595599       -4.64983289670282        6.28232158086228
H           29.01436173691622       -5.45369010143797        8.58594597827630
H           30.73712624331311       -5.39860095896417        8.21005417252410
H           29.94851869574453       -3.99027102977504        8.91910684728888
H           21.99863290840575        2.47457483135340        8.23631041276832
H           22.77949359140248        4.04626545881300        8.04929237841523
H           23.74593487330021        2.57933841781847        7.99568532315616
H           27.68251319332721        2.16887882515128        7.44425006918202
H           26.88887412750004        2.61066302495213        8.95837289404727
H           25.99753811793166        2.70031469618437        7.44442393651370
H           24.87159136875043       -7.89134280979450        5.69372261116310
H           23.80808633714518        5.16252671350143        9.73267943028324
H           23.58560590039586       -2.86774816069877        8.38101297596553
H           23.31419089840374       -4.04235449503046        9.66211313378141
H           24.91836269761145       -3.34951642111569        9.42967730671998
H           23.69841000876658        3.67315304674785       13.73110751991015
H           27.91218468149167       -6.40024898676677        6.65098216813081
H           27.07540894545962       -7.61433796386389        5.68364812925852
H           27.30771472041078       -5.98926243810304        5.04050607796145
H           29.01697658120588       -3.23678336866160        3.15646083452113
H           27.27002228997727       -4.86814548480210       12.34958517284163
H           22.32253243375230       -5.51614796132894        8.15321990647458
H           26.72607662465458        5.66634962938438        4.81127345031094
H           26.34988558244994        6.57985499961796        3.34732849709466
H           26.01154344028762        4.85372738578366        3.41557761159781
H           27.64563279378894        6.57202257303539        1.46638372634055
H           29.84692695720033        3.72211252909905        8.46246487094584
H           31.58712187798537        3.49697351908666        8.29712836181088
H           30.71090380305298        4.46206867038454        7.10853429276746
H           31.49172650108926        4.72365468480063        1.46564139002576
H           26.34968886699651        4.80290566383340        9.53146488709768
H           30.29569079565715       -0.93617757503993        4.86743906732014
