281
 energy: -424.735522815201 gnorm: 0.000048989827 xtb: 6.5.1 (579679a)
Au          11.30069101803175        4.58929140819156        7.38108410732686
Au          11.69872391793061        4.61830677550737        4.66308142626527
Au          13.44189927242375        5.98239101195907        6.53528923464211
Au          13.44530061552057        3.23675998339385        6.46041286272451
Au           9.13259123221895        4.57225217837993        5.74081792953774
P           12.31143751259974        4.62370367311682        2.34640886313077
P           14.49249353408171        8.07301893595889        6.25533242954197
P           14.24740822071282        1.07908302873975        5.92162515166188
P            7.25192957970646        4.74468007692304        4.27211326202972
C           12.35348142121999        2.98143552421895        1.56900231510223
C           13.18558099785831        2.68247029441484        0.48576571484583
H           13.85184993014687        3.44105402780152        0.09110967560359
C           13.17074789200458        1.41619334611658       -0.07916686301631
H           13.81531454149433        1.19737626904045       -0.92230607878409
C           12.33410488766211        0.43270663442868        0.43175343733838
H           12.32595389078446       -0.55657104133769       -0.01005277953552
C           11.51156346153169        0.71729614856615        1.51327207238080
H           10.86289580378934       -0.04946021185075        1.92125677405002
C           11.52137184762953        1.98214240565118        2.08006859554332
H           10.87972820816822        2.20045356619879        2.92825981993133
C           11.27140345410561        5.63874499338705        1.25517067999325
C           11.18013356763858        5.43581438604655       -0.12441684819138
H           11.75057359921909        4.64295898321952       -0.59421665527296
C           10.35565365746011        6.23915317298244       -0.89740276407672
H           10.29501607616578        6.07275460198216       -1.96645959970567
C            9.61122580641470        7.25198808973384       -0.30731992095572
H            8.96750109045462        7.87735658200731       -0.91427574173575
C            9.68823178280396        7.45796697621267        1.06383372363685
H            9.10413241528775        8.24155209186990        1.53282406746733
C           10.50886641817092        6.65390710357124        1.83931499862213
H           10.55649644757924        6.80487532140573        2.91339342701651
C           14.01111051038868        5.23953412206471        2.13867734531522
C           14.37679028561974        6.23609734811722        1.23333512963070
H           13.63237182223518        6.66681321126302        0.57376455172812
C           15.69003116993261        6.68021719736312        1.17403888884491
H           15.96036955906275        7.45700770900894        0.46835806873941
C           16.65357417652120        6.13471245200935        2.01017484764702
H           17.67865295361895        6.48166242123332        1.95782665058216
C           16.30132383141888        5.13968990447296        2.91461541478100
H           17.05000648944938        4.69843410031102        3.56295437489703
C           14.98900115243316        4.70370878135102        2.98322792177767
H           14.71525914700657        3.92994591672921        3.69440837013064
C           13.72856281565826        9.36285857299087        7.28354277529982
C           12.74446540400223        9.00610132043139        8.20751958139690
H           12.44690491649646        7.96594820395508        8.29689182584486
C           12.14116083324659        9.96669504387293        9.00473363031453
H           11.37784242644358        9.67432373957198        9.71708929409184
C           12.50658844618863       11.30001855152393        8.88074387665024
H           12.03176913889039       12.05183855544208        9.49987218972143
C           13.47739644596879       11.66846407899510        7.95822225804124
H           13.76212905012048       12.70899761154771        7.85625649729221
C           14.08567781623812       10.70948865742808        7.16424166064681
H           14.84011726515999       11.00499566949648        6.44388472987665
C           14.43674117044335        8.74909763227046        4.57086307008304
C           15.44047651821234        9.56542208289457        4.04411571255685
H           16.32455662534656        9.78334858555689        4.63205771115089
C           15.31242762687195       10.09318576093411        2.76800623299103
H           16.09766911068249       10.72403024359484        2.36843161360172
C           14.18372356316965        9.82105577032068        2.00708200159708
H           14.08430269053707       10.24103137932947        1.01328072772601
C           13.18440474565535        9.00286999317126        2.51829200114619
H           12.30424442583567        8.77874021060692        1.92614871078906
C           13.31438504608393        8.46405071704709        3.78793999002579
H           12.54352078883147        7.80602422642795        4.17834159814096
C           16.24093785472262        8.02477921414915        6.72558246432346
C           16.71873355762756        8.59031072208027        7.90895569824048
H           16.05447442106368        9.17350375290310        8.53635940974747
C           18.04085733519891        8.40966952659371        8.28639947588870
H           18.39893874689172        8.85393233677804        9.20801979159940
C           18.89922730624503        7.66279438005686        7.49219874772841
H           19.93148516435628        7.52297499561701        7.79015063615626
C           18.43280550622389        7.09327386105616        6.31356233306516
H           19.10025082659700        6.51182793078364        5.68807053995981
C           17.11117517515025        7.26351576249350        5.93647100877513
H           16.74417459286665        6.80908515251905        5.02152650324067
C           15.52040280935568        1.04534306386289        4.62954403218432
C           16.88179193773493        0.98294768175182        4.93528372360627
H           17.20120897040158        0.85480684825458        5.96350452058373
C           17.82889245556121        1.07455206338432        3.92673314761215
H           18.88222906851552        1.01599484197382        4.17480565913862
C           17.43235444419263        1.23872166404077        2.60652217392097
H           18.17520617860729        1.30949840063729        1.82104487352607
C           16.08109268929263        1.31087796994945        2.29421705281444
H           15.76317585507380        1.43963402197979        1.26593744003550
C           15.13009501141249        1.22212616460166        3.29751284081302
H           14.07546997589833        1.28016851886869        3.05088469448900
C           14.95228008215190        0.16847127770142        7.32641529563445
C           14.73850436066333       -1.19386123578525        7.54617033203727
H           14.12147561845524       -1.76431718099470        6.86172376215467
C           15.31179263152717       -1.82293747623257        8.64147751830661
H           15.13975844242194       -2.88094441748506        8.80093534550000
C           16.10596827050953       -1.10568434054062        9.52584703323503
H           16.55622056961396       -1.60236369328768       10.37702158572002
C           16.32137148962312        0.25059957950031        9.31851382568545
H           16.94485956401521        0.81604063441535       10.00177864352604
C           15.74129275098312        0.88545945855445        8.23191567014930
H           15.89789654788140        1.94875272406257        8.07951581829976
C           12.88682279704301        0.06661425973905        5.27367414245543
C           13.09756264398853       -1.09530361874191        4.52452893034916
H           14.10818893152142       -1.42026230258739        4.30573533228595
C           12.02005727636083       -1.82775588318173        4.04987784472443
H           12.19632222819822       -2.72912612387349        3.47486090153145
C           10.72047493277632       -1.40711856115712        4.30244480685074
H            9.87999801008762       -1.97923162752052        3.92744934169257
C           10.49946789486307       -0.24889660572993        5.03617047506910
H            9.48919997946354        0.09258793631043        5.22974852156699
C           11.57472148291244        0.47638715392134        5.52162562538698
H           11.39716925191602        1.37893997964580        6.09772985396097
C            5.69303898405204        4.09151493105059        4.94218745692538
C            4.75355050930012        3.39808111114205        4.17619030126969
H            4.93585262623621        3.22840840824755        3.12134571727178
C            3.58822566451356        2.92401698754076        4.76173921793573
H            2.86452232626999        2.38972214831232        4.15756716287697
C            3.34776714967497        3.13263451896537        6.11288483902409
H            2.43753525165606        2.75885723209439        6.56641393884515
C            4.27681322031397        3.81964980514245        6.88393594358754
H            4.09622509783427        3.98487577704919        7.94018046347287
C            5.44190441668237        4.29380225955163        6.30334692752367
H            6.16747139959628        4.83024928860355        6.90804156602374
C            6.85505743001379        6.45523558037603        3.80382659034061
C            5.64773397424634        6.80374801828602        3.19108385998546
H            4.90786973915693        6.03876964643536        2.98400036156043
C            5.39149801988291        8.12287622619722        2.85094207457198
H            4.45349138023047        8.38152617733348        2.37399989357065
C            6.33190729766935        9.11024379032747        3.11656588372531
H            6.12882390297950       10.13997654511454        2.84767595220191
C            7.53141236218089        8.77653214636843        3.73219713993085
H            8.26784402744032        9.54206699053863        3.94923571780348
C            7.78753216653134        7.45764161046069        4.07685965485244
H            8.72061399388584        7.19808575630978        4.56668942944462
C            7.53567236968072        3.86028978809187        2.71326680447295
C            7.63305337950390        4.50011532220079        1.47675899625785
H            7.44613176048242        5.56528874108588        1.40198987922345
C            7.97141894532691        3.77981873765770        0.34049084815094
H            8.04521934804496        4.28947667514433       -0.61323510535769
C            8.21662405156990        2.41685210241028        0.42269109306281
H            8.48003462548025        1.85688102860771       -0.46668744070464
C            8.12787387593663        1.77081169456375        1.64994155531538
H            8.31794624701103        0.70588715843675        1.72027945510508
C            7.80322036133968        2.48808905723456        2.78897345724874
H            7.75399569031676        1.98469999176376        3.74980629684266
Au          10.90277009237592        4.61861612070519       10.09897971989590
Au           9.15969183007551        5.98287476207631        8.22661608819252
Au           9.15588899964678        3.23721972182758        8.30187087825903
Au          13.46889946304002        4.57224711473958        9.02121774051063
P           10.29041739145965        4.62401018950372       12.41574712196024
P            8.10927970710183        8.07354153092146        8.50655176358969
P            8.35444512570183        1.07918639183011        8.84027847745138
P           15.34975241983050        4.74473549336892       10.48962052971500
C           10.24846805870535        2.98170137514251       13.19306808949338
C            9.41656440188044        2.68269742123554       14.27644328932047
H            8.75038118951409        3.44127182975621       14.67126302375593
C            9.43148293267544        1.41639059787211       14.84130953485454
H            8.78707439399605        1.19753687160911       15.68455998115748
C           10.26801399620282        0.43291650721813       14.33018307483671
H           10.27622823876679       -0.55638234973867       14.77193954452321
C           11.09035329493379        0.71754034210871       13.24851946061643
H           11.73892063059459       -0.04921422567255       12.84037140061461
C           11.08046473964166        1.98241769858979       12.68179301461447
H           11.72195476316240        2.20075782949380       11.83349217780057
C           11.33073121052276        5.63892188822758       13.50683690372304
C           11.42228404364468        5.43587916874564       14.88638888339032
H           10.85191032679761        4.64301362031066       15.35625291519094
C           12.24695505668662        6.23912794043672       15.65926448933023
H           12.30780598407582        6.07265571809574       16.72829761680871
C           12.99130235913720        7.25197470546393       15.06910113986340
H           13.63517638791439        7.87727160469142       15.67597143874651
C           12.91402632291463        7.45805538874593       13.69797837199180
H           13.49806753601570        8.24165004758313       13.22893156991902
C           12.09319149100262        6.65409346925183       12.92260848516264
H           12.04534848448954        6.80514873547501       11.84855137415657
C            8.59083253616711        5.23995770617600       12.62378319878034
C            8.22537251402098        6.23646174735981       13.52927839375587
H            8.96990546400299        6.66698722171600       14.18884486696271
C            6.91220350364656        6.68077302914501       13.58872455444109
H            6.64202433546961        7.45750602321757       14.29452899487749
C            5.94852634674359        6.13554132103747       12.75256595431363
H            4.92350973578122        6.48265721424577       12.80501668074705
C            6.30055708907127        5.14058039556500       11.84797371817900
H            5.55176231657898        4.69955602239626       11.19960839507069
C            7.61279972060734        4.70438412079184       11.77923473564429
H            7.88636857139056        3.93066961585536       11.06793198636809
C            8.87340299019078        9.36327811097391        7.47834070107854
C            9.85745325811162        9.00631893148177        6.55438990983898
H           10.15477214390106        7.96609767842188        6.46500938243254
C           10.46101008564914        9.96678830929652        5.75721680623111
H           11.22428712555532        9.67425659299217        5.04488361398594
C           10.09588873133875       11.30019376562568        5.88122546755375
H           10.57092387169205       12.05192200911412        5.26214953512265
C            9.12511328004914       11.66883847322763        6.80370179349260
H            8.84061823394899       12.70943809611935        6.90566074905395
C            8.51657425132819       10.70998732076514        7.59763925940079
H            7.76215989083200       11.00566217131054        8.31795421912471
C            8.16506595802994        8.74965345888309       10.19101757287108
C            7.16143185270440        9.56610543258029       10.71776508003268
H            6.27739497501385        9.78417869841935       10.12981153430059
C            7.28952063628462       10.09380413106450       11.99389944430768
H            6.50435663590802       10.72473673422996       12.39348793868246
C            8.41816351460989        9.82148701256135       12.75484737263444
H            8.51760782469464       10.24139668751287       13.74867495234292
C            9.41739467659059        9.00320087824144       12.24362645665267
H           10.29751058762693        8.77893921973924       12.83578618330521
C            9.28737283214296        8.46444724622657       10.97395639556929
H           10.05816730761203        7.80634384335555       10.58354704347085
C            6.36084868243007        8.02545678755838        8.03620740633755
C            5.88321778179294        8.59091143070192        6.85272357412951
H            6.54757499523620        9.17404292451376        6.22536526288046
C            4.56114195671584        8.41026983354312        6.47511717594551
H            4.20318480764386        8.85446009280955        5.55341279303661
C            3.70265308326276        7.66346412893600        7.26925873398730
H            2.67044391162623        7.52360880110781        6.97115350716622
C            4.16889838153807        7.09404827713177        8.44801376407448
H            3.50135641371731        6.51265943088424        9.07345628174465
C            5.49048098090664        7.26429954688061        8.82527737150797
H            5.85733357138291        6.80994348865534        9.74031941453377
C            7.08169618204090        1.04463948788845       10.13257153243826
C            5.72029556660041        0.98059814263611        9.82725157831535
H            5.40072159450075        0.85173087793601        8.79917274319211
C            4.77339331789382        1.07147464502647       10.83606004520327
H            3.72005078373843        1.01165055060697       10.58831761386328
C            5.17013766555140        1.23656848661117       12.15608961013086
H            4.42744153641693        1.30678831793701       12.94176452564478
C            6.52141222256123        1.31036061742472       12.46797417702067
H            6.83948121041175        1.43983787266353       13.49611635854604
C            7.47220455658369        1.22231304042998       11.46442938470698
H            8.52684482063037        1.28159526468306       11.71070459165575
C            7.64965665055900        0.16874112842606        7.43535134045938
C            7.86397935346150       -1.19342107876702        7.21508143573368
H            8.48144863645154       -1.76382557054447        7.89917433314598
C            7.29066808371841       -1.82238158032125        6.11971599826127
H            7.46312233400961       -2.88025893457812        5.95985364667173
C            6.49594203663549       -1.10517615844229        5.23580206989820
H            6.04566457792992       -1.60176941973491        4.38458995545943
C            6.28000079474150        0.25094563705900        5.44364618900443
H            5.65608601493301        0.81634108082242        4.76073330909959
C            6.86008368063873        0.88569089975885        6.53030820815457
H            6.70303513125071        1.94886051062435        6.68312237758433
C            9.71543102599828        0.06697946401612        9.48782176501575
C            9.50508081188191       -1.09504022167245       10.23691515734498
H            8.49455989218422       -1.42026183209339       10.45580522905683
C           10.58282881905106       -1.82725434823566       10.71138194606160
H           10.40686228341654       -2.72870400649870       11.28636539184707
C           11.88227299954590       -1.40625964716269       10.45869314015139
H           12.72294411148922       -1.97817206515674       10.83356078134538
C           12.10289306699060       -0.24793594190790        9.72501273183637
H           13.11304992257133        0.09383146545514        9.53134868963146
C           11.02739449080178        0.47709995394894        9.23972723295018
H           11.20464943150042        1.37974169634306        8.66367176219258
C           16.90842327532423        4.09138213724971        9.81919875205097
C           17.84802339668356        3.39788318678715       10.58500152911727
H           17.66598839360765        3.22832337365429       11.63991067617770
C           19.01311941394598        2.92359095863923        9.99917927895100
H           19.73690806024057        2.38923961505470       10.60319974792356
C           19.25324050193607        3.13204413240154        8.64794913901106
H           20.16328170137238        2.75806850971150        8.19420248325964
C           18.32409510759500        3.81914360637547        7.87709238350832
H           18.50442360152294        3.98424394751911        6.82078281293000
C           17.15923295008760        4.29352481559374        8.45795695179556
H           16.43359359859880        4.83003554498850        7.85340481650886
C           15.74691977768754        6.45528217080930       10.95770020834396
C           16.95444079951654        6.80369006402801       11.57011639391011
H           17.69428262793368        6.03864609889879       11.77703896143775
C           17.21090207797874        8.12280216081276       11.91015562755012
H           18.14905658572444        8.38137351660053       12.38685061532314
C           16.27052533762721        9.11025696101899       11.64474293346302
H           16.47378727345453       10.13997620817480       11.91354681994861
C           15.07082520753717        8.77664971204403       11.02943461846000
H           14.33442330437514        9.54226226983328       10.81256843571064
C           14.81447405229741        7.45777331673109       10.68488126458833
H           13.88123825719729        7.19830397346486       10.19529752319272
C           15.06635039310957        3.86049193769711       12.04860932210701
C           14.96946045305479        4.50039988409425       13.28511252562508
H           15.15658793193227        5.56554465697582       13.35977673503812
C           14.63130322314564        3.78022286448854       14.42151851456767
H           14.55788253294211        4.28993836350137       15.37524270223988
C           14.38582334903622        2.41729744503597       14.33946198193708
H           14.12257473460201        1.85742456695778       15.22894915086636
C           14.47408497634838        1.77117577534454       13.11221977340691
H           14.28379310746222        0.70628280553922       13.04199912192501
C           14.79852544009017        2.48833694031534       11.97305503911157
H           14.84735841030794        1.98489249922018       11.01223115680041
