281
 energy: -424.725504586205 gnorm: 0.000026305087 xtb: 6.5.1 (579679a)
Au           6.04450355449449        6.04450455989479        5.63370395856724
Au           6.38238117098024        8.46788832789296        4.54509664201794
Au           4.53386697844402        8.01499614818111        6.62693286386208
P            6.73220955392629       10.22777118187880        3.00819469162057
P            3.59025425742753        9.57240919074871        8.13085439894028
C            5.22781104899342       11.00764725225183        2.35500679790998
C            4.05252296941471       10.88319774051815        3.10096028425337
H            4.06899841001612       10.32999677302691        4.03508083677712
C            2.87152844082617       11.45851720264503        2.66144040826773
H            1.96852819249526       11.35318258584186        3.25223901222514
C            2.84805106932514       12.16317606036229        1.46529570638050
H            1.92494972938725       12.61225361881196        1.11864137590231
C            4.00742463805644       12.28613610118637        0.71100614325971
H            3.99072216182864       12.83203056622178       -0.22493797242759
C            5.19091454913026       11.71122973068588        1.14821962092357
H            6.08874647297419       11.80375721895153        0.54794645847604
C            7.70554036262205        9.71636951879745        1.56237815682213
C            7.64515819231434        8.37643237776073        1.16947477428063
H            7.03391818269417        7.68098774027777        1.73701108940774
C            8.36597402010919        7.92846552487282        0.07421644252312
H            8.31145861420985        6.88549943112182       -0.21714179202930
C            9.16196802246905        8.81410290410186       -0.64012323500502
H            9.72888040812777        8.46440472905567       -1.49471355341525
C            9.23913389913213       10.14469017200518       -0.25151599869896
H            9.86654884398713       10.83551342945140       -0.80234654140111
C            8.51915269099554       10.59621218080462        0.84416562465002
H            8.59565368776946       11.63328241979276        1.15040594807002
C            7.70381577044238       11.56072005495955        3.76827681250269
C            7.41409419237794       12.91845926169520        3.62356238904613
H            6.58576216828985       13.23144252245133        2.99839536855769
C            8.18662138465539       13.87042535375180        4.27403564935817
H            7.95306222032708       14.92177771565576        4.15387959795761
C            9.25255496688238       13.48176432755564        5.07315446023783
H            9.85189356630690       14.22833204634092        5.58044003957311
C            9.54879334487238       12.13277725541334        5.22461151028249
H           10.37785715425021       11.82054873124304        5.84985168571827
C            8.77604385712513       11.18014012919536        4.58227140264321
H            8.99995113874771       10.12533756376559        4.71157068876963
C            3.38194549461273       11.19166202879617        7.33632248379777
C            2.20529449062332       11.94023570310780        7.38376390888433
H            1.36016726116091       11.58402068592177        7.96154507159089
C            2.11496216080755       13.14322342336146        6.69764854678415
H            1.19665790076356       13.71686577311362        6.74244678743317
C            3.19212526285913       13.61162011489087        5.95886474015990
H            3.11678580014622       14.55062631420191        5.42359991699072
C            4.36776790833506       12.87285704106443        5.90350521724250
H            5.21283715390145       13.23024484485824        5.32557150442632
C            4.45899177737199       11.66885264357437        6.58081159491452
H            5.37317111517675       11.08498399687543        6.52596007966847
C            1.97073972593312        9.12849400140908        8.82123102734887
C            1.46380059911579        9.68066961805992       10.00068436681870
H            2.05007777149009       10.40454873344448       10.55499887360665
C            0.21507657579272        9.30138203653476       10.46859093591426
H           -0.16987993963433        9.73774233137767       11.38273003278248
C           -0.54024888841201        8.36716109734001        9.77195864821932
H           -1.51526488931005        8.07315669646265       10.14191473613720
C           -0.04189048876307        7.80520919905159        8.60419315981772
H           -0.62300420323724        7.06977828243313        8.05925744329928
C            1.20594102532094        8.18146078311683        8.13463723341940
H            1.59664606991735        7.73819859542768        7.22374194788660
C            4.68002214843862        9.89448595744660        9.54796280595677
C            4.68720668166953       11.10759097996089       10.24100839189598
H            4.02525096837772       11.90916517440522        9.93378609108660
C            5.54746002446537       11.29453572992714       11.31236084901475
H            5.54435595060325       12.23890565568400       11.84383743808757
C            6.41309980578690       10.28097280133966       11.70082797679937
H            7.08714731672068       10.43295985040119       12.53544373475081
C            6.42251879975066        9.07561731896583       11.01150209291939
H            7.10462226689950        8.28467824118334       11.30279962205368
C            5.56308608912522        8.88508844868136        9.94155334007314
H            5.57981028621651        7.94739060298928        9.39409743888673
Au           3.62122340053835        6.38236155402676        4.54470677874111
Au           8.46785224012017        5.70664590082184        4.54489398622968
Au           5.70666258933399        3.62123334543163        4.54478043111113
Au           4.07383953735187        4.53399161097155        6.62673204138892
Au           8.01508970650705        7.55490093788697        6.62705028152395
Au           7.55499492800929        4.07390555732357        6.62684398222540
P           10.22758202834562        5.35687268342505        3.00782510905748
P            5.35693423422697        1.86129154367631        3.00783622728835
P            1.86140225175361        6.73214844618003        3.00773037219287
P            8.49859951330720        2.51647467943247        8.13076689483907
P            2.51645594054410        3.59045549925761        8.13069851401775
P            9.57256304759107        8.49855645775587        8.13093116063417
C           11.00754233668333        6.86124318934705        2.35466869751562
C            6.86130385642607        1.08131054079983        2.35469464333299
C            1.08144643723675        5.22775584304800        2.35460512884217
C           10.88319323709670        8.03649285112997        3.10069994170573
C            8.03655804830524        1.20565348301577        3.10072117955506
C            1.20577795008006        4.05251925034925        3.10066260560143
H           10.32999660680568        8.02000268223378        4.03482233756775
H            8.02007505428067        1.75885625156064        4.03484073209858
H            1.75898246096014        4.06901400564387        4.03478225517380
C           11.45860485716171        9.21747049816888        2.66125949230108
C            9.21752654921879        0.63022240231984        2.66127975659491
C            0.63032550785744        2.87154733533863        2.66125600847822
H           11.35334675647738       10.12043517099326        3.25212568981730
H           10.12049627751268        0.73546947640002        3.25214048072222
H            0.73556266495753        1.96859349711559        3.25214250592875
C           12.16325990954338        9.24097358619476        1.46511310228860
C            9.24101512279157       -0.07444512589897        1.46514011993517
C           -0.07435284258199        2.84803795908135        1.46512290058879
H           12.61241882648424       10.16406076298576        1.11852493697790
H           10.16409427144570       -0.52362062008281        1.11855228882239
H           -0.52354304676474        1.92495647641357        1.11856186323391
C           12.28611530581189        8.08164110167878        0.71074316570136
C            8.08167776217678       -0.19729582688455        0.71077707365909
C           -0.19719247868201        4.00735683755667        0.71073038029814
H           12.83200468507227        8.09836340004451       -0.22520323581444
H            8.09838759886741       -0.74319902063802       -0.22516177514778
H           -0.74310643268582        3.99062795741231       -0.22520240927412
C           11.71111840626945        6.89816559498504        1.14788001220133
C            6.89821213179406        0.37772034031725        1.14791383640071
C            0.37784502583042        5.19082584592942        1.14783030392282
H           11.80356808804840        6.00037126402644        0.54753881972303
H            6.00041311857956        0.28527434069886        0.54757916843007
H            0.28540145678716        6.08860649315682        0.54746691733944
C            9.71630511455602        4.38343371457466        1.56202850944663
C            4.38348219900173        2.37254177689974        1.56204774126002
C            2.37264700302015        7.70558420850167        1.56192252439676
C            8.37637196587250        4.44363882026088        1.16908399938285
C            4.44365386122225        3.71248557165405        1.16913785882640
C            3.71259220848905        7.64542716599490        1.16901206880859
H            7.68083972324082        5.05482116239025        1.73657303337445
H            5.05485260738972        4.40801046999198        1.73661819974573
H            4.40812984348712        7.03424325215685        1.73649478003997
C            7.92851015562401        3.72270126473650        0.07386190157775
C            3.72268389920806        4.16035681102609        0.07394198298847
C            4.16045585009411        8.36640287498291        0.07381817380810
H            6.88554273193118        3.77707996630366       -0.21751683563179
H            3.77704226410736        5.20332917114108       -0.21742377145134
H            5.20343082150164        8.31206035422891       -0.21754044452564
C            8.81425039191167        2.92675859996921       -0.64040601771964
C            2.92674005231092        3.27461524889485       -0.64032448758649
C            3.27470408147721        9.16232949222589       -0.64045330735337
H            8.46463611851377        2.35975092620261       -1.49496839546445
H            2.35970243135551        3.62423741395115       -1.49486344609995
H            3.62432072870953        9.72937633412795       -1.49498721223414
C           10.14483764857240        2.84977108647619       -0.25176223518859
C            2.84978494803081        1.94401731502955       -0.25170964858678
C            1.94410127304896        9.23925554085896       -0.25184970057155
H           10.83574423698234        2.22239701178954       -0.80253457891245
H            2.22240896438904        1.25311138342676       -0.80248060848332
H            1.25318562023213        9.86660766682312       -0.80263601610855
C           10.59625393392867        3.56987399683040        0.84388361423141
C            3.56992303911155        1.49259076161700        0.84390749294882
C            1.49268249541854        8.51911693432608        0.84376969478299
H           11.63332719571055        3.49350529261001        1.15014688128136
H            3.49358310826673        0.45551058658539        1.15015471233645
H            0.45559682097483        8.59544369597073        1.15000353690052
C           11.56049477184306        4.38531519571087        3.76804180966597
C            4.38537326060353        0.52840475385261        3.76809095878026
C            0.52847554822388        7.70365252262585        3.76798814388840
C           12.91824309933193        4.67503630377404        3.62340541832804
C            4.67508208455643       -0.82934841057839        3.62348336289307
C           -0.82927029660273        7.41394380980206        3.62330521159293
H           13.23126591074204        5.50333457642225        2.99821363312356
H            5.50338390192551       -1.14239003079081        2.99830565958172
H           -1.14228713466502        6.58569684749374        2.99804167157526
C           13.87017110656502        3.90255255642183        4.27398851689270
C            3.90257636464910       -1.78125444336472        4.27407155308769
C           -1.78120669155434        8.18638654945997        4.27392295530038
H           14.92152934523035        4.13612099882181        4.15390133412239
H            4.13613119828605       -2.83261770217198        4.15400358114901
H           -2.83256373956599        7.95282913533707        4.15380415269307
C           13.48146638958074        2.83665885202149        5.07313883169638
C            2.83667699254677       -1.39252095111151        5.07320084500807
C           -1.39251129393268        9.25222070500624        5.07315755631085
H           14.22800380633465        2.23736184185725        5.58051993190786
H            2.23736362903463       -2.13904129397546        5.58058686894578
H           -2.13905344233618        9.85147182719900        5.58058331089063
C           12.13247149284635        2.54040525456190        5.22450021564979
C            2.54043890903950       -0.04352006783377        5.22453688485334
C           -0.04351941771734        9.54846090324098        5.22456449518318
H           11.82020417561537        1.71136994913247        5.84975880841063
H            1.71139986133386        0.26876845912578        5.84978004249777
H            0.26874192560325       10.37744461293913        5.84989366135062
C           11.17987301697405        3.31311349330652        4.58205055853875
C            3.31316639474601        0.90905634840775        4.58207886863963
C            0.90908678767417        8.77579620791770        4.58207775499631
H           10.12506391738367        3.08919774190543        4.71127945339343
H            3.08926040226791        1.96387108298924        4.71127935942520
H            1.96389330241911        8.99970341597932        4.71134129359018
C            8.70694344334266        0.89718053746080        7.33633349558129
C            0.89717362060842        3.38208017307661        7.33624983736010
C           11.19178262570090        8.70697842864428        7.33635409760693
C            9.88358171940226        0.14859770633274        7.38389378460550
C            0.14862381574910        2.20541904667273        7.38380462888476
C           11.94033440017525        9.88363813756257        7.38391623887481
H           10.72866547915664        0.50482270998065        7.96173201310592
H            0.50487066092077        1.36034633808432        7.96164577363170
H           11.58412944401841       10.72868292969342        7.96182379811368
C            9.97396434261661       -1.05440122715297        6.69780604613659
C           -1.05437128941018        2.11500375948150        6.69771436638129
C           13.14328408246159        9.97409145858934        6.69775131549871
H           10.89226203340623       -1.62804593916415        6.74269293194433
H           -1.62799266023734        1.19669094799051        6.74259897743744
H           13.71690331137829       10.89240548964628        6.74264040882486
C            8.89686495826317       -1.52280009111608        5.95892986839921
C           -1.52279939721589        3.19209377155293        5.95884333341566
C           13.61166687477152        8.89704118975287        5.95879363483060
H            8.97224289294780       -2.46181750654215        5.42368946303523
H           -2.46181238876634        3.11668897178470        5.42359927765921
H           14.55064148294520        8.97247723749445        5.42348604756560
C            7.72123186009670       -0.78403070152899        5.90345947458908
C           -0.78406225526367        4.36774775276240        5.90337488577825
C           12.87293313735680        7.72138575848679        5.90332515337673
H            6.87621016923591       -1.14141743297968        5.32545611988789
H           -1.14147615159996        5.21276058696869        5.32537462175680
H           13.23031052566330        6.87640148931686        5.32526118390641
C            7.62995890968779        0.41998416034109        6.58073955851374
C            0.41994991742637        4.45905458225839        6.58065667208882
C           11.66896627515332        7.63004195966919        6.58068385724621
H            6.71579586636485        1.00386750660599        6.52578678833685
H            1.00380162377158        5.37323918936269        6.52571404675037
H           11.08511696774620        6.71585659294800        6.52573804470587
C           10.11810117926219        2.96047002793680        8.82112534120749
C            2.96047727243183        1.97098947162407        8.82110978909174
C            9.12857125452313       10.11806608270686        8.82127542759189
C           10.62507915779594        2.40830733886928       10.00056816938288
C            2.40840023633396        1.46407370588540       10.00061983507205
C            9.68068573409741       10.62503992702367       10.00074086320998
H           10.03883757273952        1.68440257814455       10.55488684894186
H            1.68451584372254        2.05033579323264       10.55494399171952
H           10.40455530583748       10.03879150432211       10.55509841791605
C           11.87379424782838        2.78764136270221       10.46846102085931
C            2.78779280957836        0.21539566220752       10.46856398780757
C            9.30134477137634       11.87376140005656       10.46861123656197
H           12.25877988562180        2.35128560569094       11.38258951713484
H            2.35151078032969       -0.16954299213353       11.38274756154616
H            9.73766044109051       12.25874443634960       11.38275991597968
C           12.62907259548492        3.72190274497862        9.77183066342633
C            3.72202387953788       -0.53990370488473        9.77191593755198
C            8.36712956757400       12.62905124468302        9.77193205396089
H           13.60408252631215        4.01594493076341       10.14177562144467
H            4.01611613699465       -1.51488142785900       10.14190316997047
H            8.07308283987131       13.60406578930772       10.14185945884175
C           12.13067484281889        4.28384085603091        8.60407584386806
C            4.28387829266347       -0.04156645887782        8.60409517929276
C            7.80524372100283       12.13066010995167        8.60414926461177
H           12.71174851185557        5.01930046414708        8.05913686336450
H            5.01931896064563       -0.62265522546293        8.05914647612945
H            7.06982287557534       12.71174414636558        8.05916903685352
C           10.88285443846127        3.90753710608862        8.13453177784873
C            3.90751992692586        1.20621703469419        8.13450215461235
C            8.18155121589547       10.88283281880551        8.13463023647679
H           10.49211954154420        4.35078708610121        7.22364468250599
H            4.35070830596627        1.59690661754347        7.22356564952332
H            7.73834166177397       10.49210529595693        7.22371987866695
C            7.40887702952611        2.19449527288880        9.54794287325832
C            2.19443346687830        4.68021201758902        9.54783531241124
C            9.89470408701191        7.40885737962233        9.54808546892133
C            7.40165172640858        0.98140511403839       10.24101320877635
C            0.98131277089095        4.68745780625258       10.24085553106002
C           11.10782373407195        7.40171726784498       10.24110409033435
H            8.06351602613959        0.17976991256017        9.93375453790123
H            0.17968346033507        4.02560050844867        9.93356583299150
H           11.90939563881203        8.06364979057288        9.93382607279213
C            6.54146777386919        0.79454373920304       11.31243709893938
C            0.79442155609718        5.54764307420423       11.31227371306920
C           11.29479377374584        6.54153025374230       11.31250655463155
H            6.54454027357267       -0.14981936305881       11.84392588352429
H           -0.14996315007097        5.54458637892174       11.84372515310452
H           12.23917530216145        6.54467038642597       11.84396246316324
C            5.67594248047508        1.80818034598057       11.70096615379289
C            1.80805899235639        6.41314823569701       11.70084353880156
C           10.28124147086866        5.67591636693479       11.70105899419216
H            5.00195305730490        1.65625976266330       12.53564304410816
H            1.65611609545340        7.08713893432634       12.53551473545122
H           10.43324811458920        5.00192641514262       12.53571893335897
C            5.66658181568090        3.01353283928312       11.01163369104357
C            3.01343673845511        6.42249772381025       11.01155355913266
C            9.07586424722070        5.66646575564703       11.01177119354473
H            4.98457895068571        3.80453826041610       11.30298603396569
H            3.80443810223957        7.10449158512809       11.30293849516669
H            8.28492412554957        4.98439370548655       11.30313892206400
C            6.52593638053787        3.20397388955922        9.94160170720337
C            3.20390798222522        5.56314391374080        9.94152641409185
C            8.88531356543820        6.52582534349068        9.94176548492007
H            6.50925163831903        4.14166641488726        9.39413550873356
H            4.14162443682519        5.57981465364466        9.39410072006974
H            7.94760195237322        6.50907213465700        9.39433426327198
