265
 energy: -378.484692167303 gnorm: 0.000523923365 xtb: 6.5.1 (579679a)
Au           6.64959891897811        8.10709736525825        5.73785504315201
Au           5.96688338294165        7.94984620161117        3.13110888349941
Au           7.31810991032566        5.82406614006047        4.46323958689513
Au           5.34965701199190        5.88338847667906        6.57387734209386
Au           7.92785818948319        6.37544478687839        7.37973691577768
P            4.53964563914615        7.78645552234512        1.22858646515093
P            8.74170591622152        4.17673101054541        3.49342083898561
P            3.68202998087730        4.24359198780367        6.88307083754765
P            9.56295217873681        5.34699555880694        8.73616321088748
C            2.89996889106001        7.18111085798386        1.72363578081291
C            1.80850227822113        7.18074386534487        0.84867442536304
H            1.91888875364303        7.58656250130893       -0.15062968448084
C            0.58758971681008        6.66378482059766        1.25194096501212
H           -0.25040298165898        6.66838929770504        0.56495371029071
C            0.43675014155703        6.13711116026458        2.52861106798992
H           -0.51774411578800        5.72860812357613        2.83859480973482
C            1.51246452619921        6.13310873476268        3.40682940114375
H            1.40298435372417        5.72197369156448        4.40451165394273
C            2.73327174144530        6.65281119781007        3.00620134422542
H            3.57264588666266        6.64773504222793        3.69482749466730
C            4.25529616708163        9.36302840055418        0.37872877705948
C            3.21948341930230       10.20471292470025        0.79626223282212
H            2.51319714061955        9.85700732722387        1.54207209812842
C            3.08362811480074       11.47490908729194        0.25826186888884
H            2.26518375048180       12.10825181828248        0.58142224933083
C            3.98622594611802       11.92925682541476       -0.69482058093237
H            3.87480727833334       12.91936959704697       -1.12034228620631
C            5.02658569123256       11.10637541420356       -1.10757436799986
H            5.73146735087084       11.45435690240760       -1.85356995775924
C            5.16662174102647        9.83593521525171       -0.57093364186675
H            5.98590489892697        9.20504072585856       -0.89745221012282
C            8.99866050629650        2.71604657411654        4.53682819477481
C            8.06884194181881        1.67116786417890        4.53786250761795
H            7.25513913568496        1.66885108869538        3.82105687001304
C            8.18272142323270        0.62975068000827        5.44554578420214
H            7.46337813710236       -0.18056888659425        5.42544881412104
C            9.21515105231608        0.62190242333958        6.37500068413924
H            9.30570553563959       -0.19591124755087        7.07983854089958
C           10.13628322435610        1.66138212904664        6.39173877781569
H           10.94858224631560        1.66004356784780        7.10976768928882
C           10.02660114865406        2.70392088390011        5.48479588952475
H           10.74703498460960        3.51411730204398        5.50552634168805
C           10.38877490494716        4.87988857778652        3.18965140240969
C           10.55577695911197        6.26467962957140        3.27207122132518
H            9.71239803366795        6.88815632027354        3.55263919411980
C           11.78131440806105        6.85021859775199        2.99651465796432
H           11.89037173758865        7.92756950873195        3.05967361795661
C           12.86239401362447        6.05566347831094        2.63792873445480
H           13.82115676122253        6.51083014358512        2.41971454685920
C           12.71139958709821        4.67693922785572        2.55684629097362
H           13.55356937397164        4.05506057373012        2.27714245866859
C           11.48521827675792        4.09044920344480        2.82738734026399
H           11.37474316850562        3.01419261956318        2.75717516673700
C           11.17868062731451        4.99172434634994        7.99545887994374
C           11.56960116965429        5.76268885794870        6.89547596039395
H           10.89863613499216        6.52593488624437        6.51208063700312
C           12.79791187915984        5.55480890572596        6.28844114637003
H           13.08782208028288        6.16275168780531        5.43899108184681
C           13.64831690602846        4.56537591395905        6.76389325107806
H           14.60672158087844        4.39912401607377        6.28666651367120
C           13.26768738845454        3.78792694725808        7.84925656207796
H           13.92841714586548        3.01402199536476        8.22164301826757
C           12.04306889595072        3.99791106871107        8.46549951945680
H           11.75833916784775        3.38584781061802        9.31321645728357
C            9.90725213762214        6.33600369493710       10.22203064467675
C            9.08679580807871        7.90622299543201       11.86927294013407
H            8.27378324368913        8.50200293880350       12.26900388591189
C           10.33698274846574        7.93537703450920       12.47295737516788
H           10.50395703616928        8.55596156835428       13.34519609017952
C           11.37157786127502        7.17028424137439       11.95287030210035
H           12.34980669071163        7.19107863024630       12.41857491319182
C           11.16178886568351        6.37561715317761       10.83608666780724
H           11.97834789747479        5.78415919038856       10.43832462110664
C            5.06885838637441        6.56202297281656       -0.05341616359981
H            4.38936292177102        6.55668512769127       -0.90976343557802
H            6.05508569955846        6.85589565120357       -0.42014327662841
C            5.13311718904337        5.16562983416325        0.58159550426494
H            4.11332364886171        4.79265516060611        0.71658650514745
H            5.57622600885416        5.23599439735244        1.58226431743488
C            5.91413905563193        4.14872886508394       -0.25849212224491
H            5.80055619214286        3.16885338853417        0.21559395476687
H            5.45948317364525        4.08148176454962       -1.25116220061184
C            7.40630641734147        4.45936436879370       -0.44020415612634
H            7.52138659381686        5.32188660675417       -1.10402140350973
H            7.87127054502020        3.60402799314467       -0.93903607577645
C            8.17241517705488        4.76158936157411        0.85267385311123
H            7.72138812011163        5.62543796175817        1.35567960618641
H            9.19439421311398        5.05107535785356        0.58987757934166
C            8.22879831868331        3.57211199492182        1.82180182571512
H            8.91288753807429        2.80814896319618        1.44303308490390
H            7.24217045657707        3.11187389490729        1.91273690164217
C            4.29964709272689        2.95986709729841        8.06261779179759
H            4.28369188621406        3.40747702730860        9.06074362723588
H            3.65336484657490        2.07891106217290        8.08708747926281
C            5.72978206978428        2.54503594428130        7.69025049605519
H            6.30922946731594        3.43423657993302        7.41571829118925
H            5.69613659197132        1.90734654929959        6.80131588725058
C            6.45721656150061        1.78555685339705        8.80545897617670
H            5.86851689837037        0.90507298428530        9.07928396066678
H            7.40649158740490        1.42529532144270        8.39582587043107
C            6.72329602360320        2.59264970466956       10.08430911019216
H            7.29784533562801        1.96073955403885       10.76796922751343
H            5.77281545138521        2.82123490606953       10.57729239696336
C            7.47029889608493        3.91573762061362        9.88156313214280
H            6.90762753817376        4.55104668233069        9.18762970025605
H            7.49965142634951        4.44717146456226       10.83800981410580
C            8.90408582259069        3.73657116120213        9.36443948438330
H            8.91781347285752        3.03517227139797        8.52491753854499
H            9.53186244248979        3.31637940770330       10.15422053077688
C            3.33973748664499        3.34992782732219        5.33737167361326
C            2.07923209325395        2.83854651620528        5.01741918742251
H            1.25733434882628        2.94782933200358        5.71553740321525
C            1.87043762446753        2.19225381103866        3.80848344085791
H            0.88737691323120        1.80158950732065        3.57349356755255
C            2.91211556025201        2.04559164516644        2.90311607967159
H            2.74578026674965        1.54114199838730        1.95883428076877
C            4.16869297253001        2.55076682646195        3.20980954973726
H            4.98762910746001        2.44012139169585        2.50782100136553
C            4.37866433151779        3.20248345857909        4.41344448805848
H            5.36014401101633        3.60826290189082        4.64060615989021
C            2.06857108003969        4.79025061868169        7.50210187166184
C            1.70909440551440        6.12341885608727        7.27674814034649
H            2.40227263498129        6.78480426974320        6.76503208031455
C            0.48392453513270        6.60680577452348        7.70742079207610
H            0.21866401221811        7.64140873526670        7.52184722078012
C           -0.39464583646860        5.76867068325178        8.38108775314504
H           -1.35062753264963        6.14738684485173        8.72255355356468
C           -0.04519339912001        4.44632896099842        8.61900280700041
H           -0.72795680622062        3.79037948987618        9.14599335193065
C            1.17607917442682        3.95541369107148        8.18180720247942
H            1.43627074304674        2.92068414540940        8.37140170722417
C            8.87577855548419        7.11822930845738       10.75036231753234
H            7.89948425240023        7.11114616675941       10.27453480721906
Au           5.96590761947134        8.26488574278206        8.34342029919886
Au           7.31910597885175       10.38917165851293        7.01268457115210
Au           5.34972385595026       10.33086476835353        4.90252907773488
Au           7.92707560407563        9.83903122044383        4.09647182803340
P            4.53970877224872        8.42752431807290       10.24702928281248
P            8.74163253601702       12.03728373390510        7.98214969148077
P            3.68206666916954       11.97033523438332        4.59247491458015
P            9.56293927972355       10.86692505858885        2.73946934749263
C            2.90002095293283        9.03285621674097        9.75196248881651
C            1.80854257591970        9.03323893997771       10.62692450080770
H            1.91891739409459        8.62743160458554       11.62623430534454
C            0.58762705673942        9.55020466228511       10.22366234415749
H           -0.25037099478865        9.54560018197131       10.91064731354454
C            0.43678540822854       10.07687456335933        8.94699364434482
H           -0.51771486862814       10.48537165955195        8.63700991445436
C            1.51250627979027       10.08087376920264        8.06877799725156
H            1.40301316885287       10.49200811299300        7.07109681849000
C            2.73332629988625        9.56115918376435        8.46939423893471
H            3.57269910969007        9.56624551374394        7.78076954095266
C            4.25527713925025        6.85098487032198       11.09692268867327
C            3.21948181170234        6.00929156176090       10.67936247676680
H            2.51320452261022        6.35699112093297        9.93354009763818
C            3.08363945123206        4.73908566320997       11.21734244835616
H            2.26519987603919        4.10574009940852       10.89417475795734
C            3.98623526273468        4.28473974188413       12.17042693087370
H            3.87481623471281        3.29462763152210       12.59594887764211
C            5.02659328408558        5.10762303882273       12.58318333753621
H            5.73147600295897        4.75964362214971       13.32917824154994
C            5.16661780883588        6.37806909802953       12.04655882399407
H            5.98590976778664        7.00896052789217       12.37306161386446
C            8.99867052931252       13.49797753078638        6.93878407204334
C            8.06885544997975       14.54285439634373        6.93774762481296
H            7.25514772352462       14.54516511736891        7.65454757049742
C            8.18273551397298       15.58426536549601        6.03005977733366
H            7.46339931635471       16.39459050295827        6.05016201858058
C            9.21516291857910       15.59210657781481        5.10060213840043
H            9.30572782217485       16.40992662659170        4.39577376265628
C           10.13628463776927       14.55261775319316        5.08385510557174
H           10.94858256254880       14.55395168145436        4.36582473806614
C           10.02660216725441       13.51008523423100        5.99080518863278
H           10.74702065487108       12.69987444304666        5.97006582377767
C           10.38870082388921       11.33410666141619        8.28591008764350
C           10.55569734572201        9.94931213319559        8.20349588761403
H            9.71231669523633        9.32583745762976        7.92294067767386
C           11.78124683947608        9.36377743019139        8.47906425068902
H           11.89031389827790        8.28642674886917        8.41591456438600
C           12.86233539258190       10.15832858896179        8.83764468874379
H           13.82110098184610        9.70316229054521        9.05586171591541
C           12.71134446703980       11.53705099954598        8.91872184352327
H           13.55352125001776       12.15892695345682        9.19842108813093
C           11.48515910531740       12.12354086857367        8.64817752904361
H           11.37469717268854       13.19979871887853        8.71839029953036
C           11.17868460588817       11.22224466743063        3.48014087698407
C           11.56962942563570       10.45128953441496        4.58012130244875
H           10.89868255336843        9.68803832426550        4.96352969126305
C           12.79793890876230       10.65917799375296        5.18714980027956
H           13.08785041329330       10.05124374894013        6.03660511637914
C           13.64833664580308       11.64861317568876        4.71169511325177
H           14.60673877745669       11.81487427488350        5.18892482183449
C           13.26769551708999       12.42605660000241        3.62633246848604
H           13.92842272680404       13.19996395216775        3.25394512444926
C           12.04306818590954       12.21607066532991        3.01010110931038
H           11.75833972049019       12.82813217722033        2.16238203151920
C            9.90724479181741        9.87801229187980        1.25353439325069
C            9.08679375210422        8.30778917845572       -0.39370044844989
H            8.27377965009756        7.71201620194107       -0.79343661099077
C           10.33698418376666        8.27862976304374       -0.99737450559435
H           10.50395486034965        7.65805618605896       -1.86962035920770
C           11.37158251302750        9.04371275589557       -0.47727800732943
H           12.34981249668643        9.02291566356209       -0.94297833062442
C           11.16178720861721        9.83839046165925        0.63949471500862
H           11.97835459952800       10.42982253494166        1.03727972356907
C            5.06885450401253        9.65198894498340       11.52902938339357
H            4.38935209426413        9.65730657323706       12.38537079433862
H            6.05509573630488        9.35815392303173       11.89574495139730
C            5.13310951480223       11.04837082433955       10.89398819301961
H            4.11330906071621       11.42132282273502       10.75897709674384
H            5.57620598854074       10.97795167061427        9.89331582678449
C            5.91414264278516       12.06529136021213       11.73406215182606
H            5.80055539989705       13.04517779591855       11.25999539455157
H            5.45952787729412       12.13253465320267       12.72674967147007
C            7.40630907535374       11.75465969094334       11.91578406797921
H            7.52138176621349       10.89212368605348       12.57958184883169
H            7.87131508061920       12.60997708658667       12.41461355417170
C            8.17240491855258       11.45242361850241       10.62291559876955
H            7.72136769781286       10.58855800230903       10.11994580887428
H            9.19437635892175       11.16294472884004       10.88575005602251
C            8.22879891476049       12.64190528472177        9.65378906817439
H            8.91287615140756       13.40586104625075       10.03259850777816
H            7.24217978181445       13.10215256665598        9.56281860796378
C            4.29961786951117       13.25413859979389        3.41296909532546
H            4.28365542249906       12.80651136876373        2.41485293947074
H            3.65336022565603       14.13511519766886        3.38848498408245
C            5.72975510726979       13.66895138678512        3.78534902179058
H            6.30917992015154       12.77974109753538        4.05990113262653
H            5.69610960861615       14.30665400100414        4.67427339170832
C            6.45720856866200       14.42843592236574        2.67015563588366
H            5.86851590970342       15.30891720219551        2.39630851778593
H            7.40648377183169       14.78869709437841        3.07978920620997
C            6.72330418804774       13.62135296979558        1.39131111341149
H            7.29786690903521       14.25327968618423        0.70767745186631
H            5.77282530690902       13.39279189043310        0.89831300737089
C            7.47030014219196       12.29825925713825        1.59406755267160
H            6.90763885372022       11.66293585942329        2.28799402318480
H            7.49965660183502       11.76684976581858        0.63760716183812
C            8.90408466252160       12.47738101285994        2.11121019094573
H            8.91782448183154       13.17878679375645        2.95072704833904
H            9.53183204704127       12.89761045481765        1.32142129724591
C            3.33974733509554       12.86398278010469        6.13819477474945
C            2.07924358785416       13.37539474096166        6.45815400837852
H            1.25734040543624       13.26613118144858        5.76004056681380
C            1.87045607955812       14.02171819191524        7.66708232108673
H            0.88739578946222       14.41238546775639        7.90207886080091
C            2.91213451061082       14.16839177808426        8.57244438616821
H            2.74580142113521       14.67284764358271        9.51672663150450
C            4.16870871455489       13.66320887808541        8.26574431130843
H            4.98764504746440       13.77386570207072        8.96773150832305
C            4.37867105618684       13.01146119029371        7.06211679729171
H            5.36015130605150       12.60572019320397        6.83492827469956
C            2.06856278911966       11.42373575114207        3.97349180428483
C            1.70906988572255       10.09057068261584        4.19884123325633
H            2.40223742724120        9.42917601491949        4.71055754599095
C            0.48389678001645        9.60719388516056        3.76816864263518
H            0.21862971265099        8.57259192830732        3.95373852575780
C           -0.39466976359436       10.44533539168816        3.09450658386508
H           -1.35065312431422       10.06662415356912        2.75303861182222
C           -0.04521153062404       11.76767699607302        2.85660159107576
H           -0.72797205534917       12.42362978048835        2.32961114310708
C            1.17606266961904       12.25858559443242        3.29380635987661
H            1.43626085171922       13.29331308047413        3.10421067522392
C            8.87576727189036        9.09578335360519        0.72520457012964
H            7.89947775933442        9.10280110635431        1.20106850602949
