321
 energy: -496.827984160329 gnorm: 0.000043603454 xtb: 6.5.1 (579679a)
Au          18.76938351564857       19.60312066820053       30.36663789475353
Au          21.42192149626715       20.53993803430612       30.49972664703678
Au          23.42317294207772       21.73685475219150       29.26455276697963
Au          20.14346425438553       19.16813265845854       32.62193337022982
Au          21.98682004889483       21.48852819693552       33.06649108257179
Au          19.54407453590910       21.95056848048273       32.04703331669045
Au          20.96232800228674       17.81763477603802       30.32315337170562
Au          22.48291976354103       19.28703150071938       28.43960631713565
Au          21.71241732704944       23.27935206449666       30.89415884010842
P           21.21692991970892       15.47252076223437       29.88958829415264
P           17.30279687096026       19.93960050205267       28.50752658061766
P           17.29275710412120       22.72637716560736       31.94143292912348
P           23.38901600529287       17.73109623298868       26.88992899975912
P           24.00276395895945       21.16522031122309       34.31097650617055
P           22.16222167390759       25.61006508418568       30.55761819116727
P           20.57372487116175       18.44031793810410       34.84838856305410
C           19.94679409474215       14.98585748625191       28.67974958728223
C           19.41166356931283       13.69613911831832       28.62174889405307
H           19.79318331062761       12.92089742917851       29.27536637704856
C           18.39164034575309       13.39683148125359       27.73237569971716
H           17.98840679522111       12.39160473020506       27.69885175759624
C           17.89207626186557       14.37597392121186       26.88487099199119
H           17.09725985075072       14.13979235990825       26.18753658983925
C           18.41297741134716       15.66172769742980       26.93609284441194
H           18.02858581998237       16.43156518703855       26.27760584479799
C           19.42334222403707       15.96647295404141       27.83307100515247
H           19.82066528042359       16.97578082399876       27.87229583884801
C           19.13013432453786       17.69763553770525       35.66230476976425
C           18.10350506805024       17.19114576778319       34.86049666521851
H           18.17980008309739       17.27314045028229       33.78087622517047
C           16.98760686297105       16.59952323193246       35.43145772957793
H           16.20101553254424       16.20891202801075       34.79607910880632
C           16.87936339258725       16.51245863703649       36.81304551338246
H           16.00670757699679       16.05194383244969       37.26060108458574
C           17.88702648646014       17.02341248254993       37.62006758954290
H           17.80210268917276       16.96410977159423       38.69875865544938
C           19.00539512592070       17.61338292496160       37.05212240592890
H           19.78237588022725       18.02047716170046       37.68869422777574
C           23.90190967468612       18.50197383160427       25.32443785202704
C           24.25304715262602       17.75687127057481       24.19319854525803
H           24.17615332256715       16.67567739367212       24.21263156085697
C           24.68450894270032       18.39368342558689       23.04010303412308
H           24.95402197219941       17.80382068003446       22.17192625248919
C           24.77073542637136       19.77883536611394       22.99460600862689
H           25.10850938998858       20.27283519917520       22.09138202549371
C           24.41586835445396       20.52923717243509       24.10688793628616
H           24.47269122012038       21.61164880196815       24.07877968453804
C           23.98345195640539       19.89459923588728       25.26041043810534
H           23.70119154777706       20.48625671854212       26.12496354106575
C           18.43994001952417       20.01699885749015       27.08126171493431
C           19.57849886815571       20.81894700430408       27.20782716995344
H           19.70915492919307       21.42454865201481       28.09873562571192
C           20.53969652838906       20.85358255578333       26.21073718173052
H           21.41293193541952       21.48389036622519       26.32680246387968
C           20.37636743121468       20.09502304894309       25.05813333675097
H           21.12797559243381       20.12703008948815       24.27820344059415
C           19.24549050700581       19.30512976465669       24.91343364242138
H           19.10354254913353       18.71707494080696       24.01427474795160
C           18.28891214022812       19.26059942335175       25.91822258202438
H           17.41430824437741       18.63427015088289       25.78915035168667
C           22.85913748029416       17.21015531135934       33.91329104794934
H           22.89618766268487       18.05761746980714       33.23542250478213
C           23.80728430316424       16.20628408467342       33.81100918104634
H           24.59074646113957       16.28027953534372       33.06532945154964
C           23.74992931321636       15.11072507284111       34.66357232950698
H           24.48452665268759       14.31881125366164       34.57928076939633
C           22.74857991066475       15.03336945785463       35.62166717009192
H           22.69908286048736       14.17969858110412       36.28729394142503
C           21.80663700972691       16.04484164702419       35.73460512693689
H           21.03088491540520       15.97446662961563       36.48793769543692
C           21.85553323607737       17.15246639889344       34.88500287363239
C           17.09781360430201       24.00311177977891       30.66266573279336
C           17.92147823332017       23.92359428202650       29.53576038860052
H           18.57645683524779       23.06616533928636       29.41412327822760
C           17.90598861065912       24.91867691512500       28.57305603606598
H           18.53707187139173       24.82864968873670       27.69618410855717
C           17.08319090266880       26.02626851247742       28.73568426821407
H           17.07643058093111       26.81129193184735       27.98899152842005
C           16.27171612728402       26.12454835391945       29.85751779040805
H           15.62958228464798       26.98747420987144       29.98898667078237
C           16.27644605104306       25.12250803602828       30.81614360324555
H           15.63726457414607       25.20930749002825       31.68687798573730
C           22.84934783162349       14.82981384568531       29.37769279260517
C           23.73845652152468       14.54055077334551       30.44888206093572
H           23.40609737484039       14.72111611158001       31.46529108884785
C           24.98458868714960       14.03079511938679       30.22532368832548
H           25.63939185582917       13.80476522286131       31.05941789118441
C           25.43453656517324       13.77981235209287       28.90794234988596
C           24.58528853310743       14.11793864439753       27.81963918595928
C           23.29760013200686       14.67591515768602       28.07466379513237
C           16.22280771200699       18.52813847095233       28.13330706822647
C           16.35542755809281       17.36221501843281       28.88953516897944
H           17.08572816714121       17.32656078806452       29.69186095380429
C           15.56297674647987       16.25596079964856       28.62636991209400
H           15.67561839926931       15.35874502360738       29.22382326100512
C           14.63013773896729       16.30000074654850       27.59926432842170
H           14.01038101345491       15.43567671729565       27.39247775714005
C           14.48627977460934       17.45563566947261       26.84202212254490
H           13.75453881315635       17.49456599417968       26.04377822134500
C           15.27133695868792       18.56654122610173       27.10791254326183
H           15.13993074046521       19.47275025648974       26.52731543191605
C           24.97019956791760       17.19697286455949       27.61965481729755
C           25.09077327272219       17.21103805744077       29.01192403031178
H           24.22493915830038       17.45511625431793       29.61841942636289
C           26.29216854413431       16.89654643422474       29.62732596727353
H           26.35891537665842       16.90077283291975       30.70936064828857
C           27.40252022820735       16.57734889185850       28.85728013752993
H           28.34442050177210       16.33606382933544       29.33505368849929
C           27.29959837390922       16.56661974235922       27.47297320214676
H           28.16094006328586       16.31313043557012       26.86626597782297
C           26.09540662440551       16.87377056389092       26.85688404235755
H           26.03249265339524       16.85954759742771       25.77547076177022
C           21.03114538104500       11.62436204254468       26.21461116611798
H           21.09310624584802       10.61280617589946       26.59837262251809
C           21.75080375496979       12.62786249252791       26.80840121216108
H           22.38230246893998       12.41025093700320       27.66192509932882
C           20.20876679104483       11.89434740005668       25.10661488457627
H           19.64671544050615       11.08812244497093       24.65047399275205
C           20.85832123139735       14.22207661485339       25.19374706066347
C           21.69233195620958       13.95368955456688       26.31288170307511
C           22.44916950407347       15.01048167943845       26.90047923571503
C           22.43027517737594       16.27704840694204       26.33715506446957
C           21.54743340912383       16.53452673997912       25.25335672619710
H           21.49293316415235       17.54168122996697       24.85572815509400
C           20.78606674772821       15.54592984123360       24.70098216879679
H           20.12792541763032       15.76469990297499       23.86761916204955
C           26.70469006031417       13.21771238280695       28.64835837464699
H           27.34252965698279       12.96290479771733       29.48728583424514
C           27.12023451842064       12.99559543997977       27.36174274183261
H           28.09311922151528       12.55978275887833       27.16797767281516
C           26.28519723163248       13.33232137175460       26.28185042805478
H           26.62513220625633       13.15162169143153       25.26885404380028
C           25.05047595529726       13.88387108817770       26.50231782571076
H           24.41313955683771       14.13959725586668       25.66379585658693
C           16.70576870836917       23.50172101774645       33.47500168465203
C           15.35057256551000       23.59980693911676       33.80349081507309
H           14.60311109463692       23.18310711333983       33.13833734603860
C           14.95911674631030       24.21635887018027       34.98167633282594
H           13.90554299766655       24.28613445641133       35.22542986375641
C           15.91019837564627       24.74082132744659       35.84659565667742
H           15.60031630381722       25.22219944647331       36.76646750486235
C           17.25972723877022       24.64100301678281       35.53506034774769
H           18.00727692226139       25.04277278771525       36.20942849072425
C           17.65470198625253       24.02247224533503       34.35924709248368
H           18.71037492499437       23.93071107875008       34.12396185649039
C           24.40944566383637       25.10993275007507       32.10621618588366
H           24.30746873522222       24.09410709044820       31.73775832112588
C           23.52063411440679       26.09501898772363       31.66829221435709
C           23.66157197455647       27.39341784034779       32.16579437369872
H           22.97814616716995       28.17229036890047       31.84933548456065
C           24.67188939529154       27.69664826920016       33.06484102728425
H           24.76860169955086       28.70850790469651       33.44031931812020
C           25.55951187092743       26.71284310598568       33.47811684540779
H           26.35159367717349       26.95201966035106       34.17754162315265
C           25.42686076270088       25.41859142251879       32.99391615596499
H           26.11607786517566       24.64516379295744       33.31146702727869
C           20.12103453012844       13.16792472754220       24.60894690183461
H           19.48894797989731       13.38587578511537       23.75542566400574
C           23.39840067918120       21.63032081720096       38.12993828201483
H           24.23928337667236       20.94772580422354       38.09169657777080
C           22.36841558614110       23.63608167405272       38.98237091631098
H           22.43499982154279       24.51826022684683       39.60797255303198
C           23.45476019954563       22.74600477231683       38.92325043966014
H           24.34236084320149       22.94869912016900       39.51098152755768
C           23.95738161949333       23.75337148479893       26.64499662587157
C           22.56077408065374       23.75836428508129       26.69127691131094
H           22.05877943478550       23.54517389484939       27.62909745725682
C           21.81060126483489       24.05371713197195       25.56387078901081
H           20.72839528663116       24.06493281297999       25.62631759151197
C           22.44666611609317       24.33453944747766       24.36211718875639
H           21.86303187055440       24.56068898947685       23.47787630657563
C           23.83344071126842       24.32716638448082       24.29958448860037
H           24.33632859536691       24.55204749456933       23.36642732870382
C           24.58466105250803       24.03903393635778       25.42944338031986
H           25.66603189911003       24.03887982740611       25.36349285398673
C           20.81930060761588       14.44416956080817       31.33908559011220
C           20.08866479923741       15.01527336194891       32.38239321627031
H           19.79223372584974       16.05725470662555       32.31697417089739
C           19.74483212999148       14.27319807109365       33.50091711142121
H           19.18166826645139       14.73849708284483       34.30215676051714
C           20.12661620688974       12.94233287624134       33.59411511890731
H           19.86211020441266       12.36126890412142       34.46952391975232
C           20.85111307290290       12.35923237075936       32.56312692840600
H           21.15201207666576       11.32035378091032       32.63032791901261
C           21.19613315614167       13.10028302584523       31.44387399311366
H           21.77340467567811       12.63633962835078       30.65236081401654
C           15.37881929236113       20.99644952933070       30.62033275556844
C           16.14479035027639       21.32750833215848       31.72519251074996
C           16.17927863996171       20.44175641625228       32.83787237773118
H           16.81573716696264       20.69435374557570       33.68061074344483
C           15.44261842805126       19.29436478020247       32.86104175211041
H           15.49599421082043       18.62639030092584       33.71367769219858
C           14.57835634523338       18.97769250529027       31.78660868900931
C           14.53199059893925       19.84817773131537       30.66335245920305
C           13.75445519680870       17.83029409708534       31.80946427233592
H           13.80782032204140       17.16827668981678       32.66668570495147
C           12.89123580599719       17.56985615239865       30.77773674812024
H           12.25455671079298       16.69349617850303       30.80395148754987
C           12.81519165021616       18.44802432563231       29.68279522522813
H           12.11422089509416       18.24236249129356       28.88235900458773
C           13.61885069709764       19.55603499164716       29.62184422155050
H           13.55196094856997       20.22981797573575       28.77567364452160
C           22.16121758602668       20.18361765830852       36.53457623649560
C           22.24275742323780       21.34164507894102       37.36512687132830
C           21.13248508794469       22.22512092867949       37.45666969642057
C           19.95038638025157       21.91299464203314       36.74466228889627
H           19.10573481296303       22.59127706852155       36.79510388922682
C           19.86350952337867       20.75694672158808       36.02669438924472
H           18.94144020877321       20.50751827201083       35.51025107125099
C           20.96092830578101       19.85737373224483       35.92674570026604
C           21.22995023688326       23.38027236904621       38.26412499958252
H           20.38023672729815       24.05199785742668       38.31626653177269
C           25.05112682076705       16.38090483556097       37.87673205275928
H           25.94911542635043       15.79195871222361       37.72756704508534
C           24.16136475798834       16.05827201968198       38.86705725101019
H           24.34568675868177       15.20741449310080       39.51215469320498
C           23.00522393997497       16.83581314978387       39.06310431443561
H           22.31810901114517       16.57693567655802       39.86013137554755
C           22.75005131466232       17.91511309114790       38.25961607096342
H           21.86535761990211       18.52067489734218       38.42030728163954
P           24.86939448409300       23.24994903981730       28.13944140541784
C           27.35516833534850       21.71597142695224       31.95304069525818
H           28.27159521388584       22.29388834266127       31.97772590542309
C           26.46451645287341       21.80006140369275       33.01441188065704
H           26.69801597707922       22.44777630099481       33.85093019594237
C           25.28448533235353       21.05544189478701       33.01596420763987
C           25.02021773003948       20.22754690468124       31.92008248377402
H           24.11378889822424       19.63120753659888       31.90719716947516
C           25.90336729477936       20.15288285040153       30.85517949073614
H           25.68319823173459       19.50091532528339       30.01873419550062
C           27.07622749322063       20.89779243172299       30.86840936430418
H           27.76745278595259       20.83372633374934       30.03640596563743
C           25.00169164502888       25.99719332219381       28.98849006450495
C           25.54807755312787       24.72299602813904       28.97972950737324
C           26.72544807879585       24.47354507190884       29.73601387311853
H           27.11424452656204       23.46211603212008       29.77278834786130
C           27.37571975367671       25.47422722292244       30.39762690827689
H           28.27870666991967       25.26131929715196       30.95867225806274
C           26.89215738462468       26.80246308592689       30.34684309811569
C           25.68598733794420       27.06478915659664       29.64218133456336
C           22.68714707836456       27.18837436332743       26.21730423659157
C           23.85916909247095       26.85026771807212       26.94677088704826
C           23.74302861096303       26.32975186238671       28.26977545013612
C           22.49657647525236       26.21201414512789       28.86575253840499
C           21.33622787015156       26.50152183481972       28.09676586427161
H           20.36137041790960       26.34912138686474       28.54694611853976
C           21.42530720836358       26.97634702260882       26.82037921942288
H           20.52628366836204       27.20351983882509       26.25852690888083
C           22.80989328334305       27.71176694876948       24.91052619200637
H           21.90820322788520       27.96680677835025       24.36511895287851
C           24.04432990620345       27.89671881014972       24.34543369217933
H           24.13335996714465       28.30286611470013       23.34488588126120
C           25.20640380747248       27.56028537944400       25.06181577804092
H           26.17702874044706       27.71162020385241       24.60425825970286
C           25.11866871458805       27.04575537623934       26.32867829596987
H           26.01997080231688       26.79001834625157       26.87361161381151
C           25.20133816252235       28.39545413338643       29.60654397423144
H           24.28211233967365       28.60885325776718       29.07353641545888
C           25.88565217982264       29.40857764914226       30.22526143070495
H           25.50776408964692       30.42330314480724       30.18180984520588
C           27.07942312976128       29.14446472489123       30.91947650533061
H           27.60665779541989       29.95829513601906       31.40286257400108
C           27.57053711516953       27.86687370207402       30.98215391153429
H           28.48984553294272       27.65328039900790       31.51580410266093
C           26.34833580050270       22.44379957690603       27.45275140157151
C           27.44615140836161       23.16168323229326       26.96559135512843
H           27.45961506517849       24.24335120355504       27.03642770970017
C           28.52557751554333       22.49712690468687       26.40456336785246
H           29.36872936605874       23.06619534973536       26.03097723719670
C           28.52935803793017       21.11112786579089       26.32076832467992
H           29.37505126905335       20.59561094961162       25.88147768785169
C           27.44946375895131       20.38749918677344       26.80716984191950
H           27.44529843550788       19.30460911737269       26.75184272896111
C           26.37005911713416       21.04992609234846       27.36957310982964
H           25.53092018302423       20.47919841129574       27.75319432898715
C           20.78819525972650       26.67168410371060       31.10557798320968
C           19.84127055633461       26.13434603773225       31.97937264971666
H           19.93160457987496       25.09870444780441       32.29121275835883
C           18.78657327704263       26.90198662172559       32.44638191041109
H           18.05979894963948       26.46298858986717       33.12075030777144
C           18.66123063081364       28.22463369143609       32.04539486186465
H           17.83499784765104       28.82566158223621       32.40601720270365
C           19.59653685286242       28.77390599274153       31.17862247008291
H           19.50376894930188       29.80624169598585       30.86238564122814
C           20.65272872284331       28.00760543882537       30.71126390169735
H           21.36947495716775       28.44549377878318       30.02605772671216
C           13.73058112116284       24.79129204112685       27.88162888745291
H           13.76689172156825       25.36479166207127       26.96224127803639
C           12.87756766092691       25.14693340403001       28.89278696194732
H           12.22970138406325       26.00865685040670       28.78420630918150
C           12.82689052839713       24.38990667190747       30.07770717758221
H           12.13684922035068       24.67542684218858       30.86301951514173
C           13.63686462313220       23.29734345185449       30.23857050753598
H           13.58813559010154       22.70824402092181       31.14734035619122
C           16.26220317248734       22.17400231429603       27.12927440789213
H           16.92678171609630       21.87816049197303       26.32636745466069
C           16.24206436522236       21.41237901676281       28.32329093421083
C           15.40606047154909       21.79411325957635       29.36446335245524
C           14.54029326240915       22.91041102734399       29.21868820772032
C           14.57681777659981       23.66643312536215       28.01413258418881
C           15.45898988409677       23.27033760298798       26.98285737681005
H           15.48636785807724       23.84563989341815       26.06432064898302
C           23.39229254320085       19.36749076986679       36.35378541288189
C           23.64129520432100       18.26723957887422       37.21667606298689
C           24.81923351049332       17.49112514737554       37.03259345746241
C           25.72531907928686       17.85336964231492       36.00974607325178
H           26.62433846721118       17.26367592732467       35.87025831375856
C           25.48407720295627       18.93494629636715       35.20949248554479
H           26.19284694614238       19.20427671887893       34.43567192252276
C           24.31331164576847       19.71500156720411       35.37423065348063
C           23.72286835472138       23.75502469459657       35.26267285233405
H           22.83125236903798       23.77342067561399       34.64383506663706
C           24.50128411262134       22.59722829576870       35.31071352839613
C           25.64253976655254       22.58106690889995       36.12043517982906
H           26.24276318447679       21.68075967501308       36.18927443228174
C           25.99930061019084       23.70630473453267       36.84689104281883
H           26.88714238854123       23.68470567849176       37.46770982803783
C           25.21869986273942       24.85378352431773       36.78747258139184
H           25.49700615300444       25.72921892893055       37.36198705346342
C           24.07689208437198       24.87514648090959       35.99824467666581
H           23.46071731311023       25.76560422973984       35.95309391733438
