321
 energy: -496.828216832091 gnorm: 0.000036142079 xtb: 6.5.1 (579679a)
Au          11.04045956102066       19.91161202582768       44.79648537119470
Au          10.73600349458041       17.17753183750588       44.39787209029838
Au           9.03971714884143       18.72360988880871       46.04244525043750
Au          13.70045075572348       20.83432316104989       44.91748354618912
Au          11.50642785718673       22.62936467023091       44.97906566471148
Au           9.99550985335670       21.16725747532034       46.86919105171222
Au          10.47510177603327       18.96745263469503       42.22547440009586
Au          12.32021752014420       21.28440719204756       42.67072713679733
Au          12.91390052738481       18.49435733383195       43.24561000607810
P            8.45888440898965       19.30285670977507       40.98449540910489
P           11.26904927162095       24.97542677097219       45.41725333618301
P            7.58544543684898       17.21737745185900       47.16585071787305
P            9.10533006504923       22.72378554411594       48.42749010816796
P           10.27588920963806       14.84882649110698       44.73681364983521
P           15.17517897807444       20.49095619395517       46.76881239443154
P           15.16277568874859       17.71027365479540       43.33475727794812
P           11.89457602440949       22.01500362587630       40.44432589828588
C            8.91362618394528       14.37036788568638       43.62804526371944
C            8.02871610920565       15.35989713019384       43.19217686826609
H            8.13582659207800       16.37491304462427       43.56142345524341
C            7.00877104604251       15.05673956910914       42.30550042490930
H            6.32271769388395       15.83361239450839       41.98949997688635
C            6.86959622863192       13.76355023715508       41.82028061924753
H            6.07555001073835       13.52863161212220       41.12164154424423
C            7.75325354435874       12.77532954432430       42.23150903720963
H            7.65145116188183       11.76427409420756       41.85521053418884
C            8.76611982398800       13.07310692700311       43.12951890576942
H            9.44641950922876       12.29083019090024       43.44429908030579
C            7.95018502186172       17.87306193936206       39.98668854856258
C            6.80812157553434       17.89547640628954       39.17826188342587
H            6.21310005502146       18.79924347276527       39.10959758607287
C            6.44392467665235       16.77194785367557       38.45285027559865
H            5.55555279223551       16.79844397537069       37.83297917655981
C            7.21777698040386       15.61989776979349       38.51208540513839
H            6.93369449712087       14.74581011883436       37.93834725392434
C            8.36025838306323       15.59220859674281       39.30014288205515
H            8.97118287590309       14.69813594272881       39.34519857715481
C            8.72172819481561       16.71066629679371       40.03460796204882
H            9.61393127412016       16.68736816210685       40.65243481193674
C           12.54892081833852       25.45322766208989       46.62034375341064
C            7.52195922713940       23.26672031699427       47.70910127385930
C            9.89070171913378       16.69520446681024       48.61422552875639
H           10.39410910737750       16.90799030208843       47.67706450544019
C            8.49409717941163       16.70601568628627       48.65960390249910
C           16.31532043940143       19.10625482053534       43.54424871214176
C            7.86472648959180       16.42023835154902       49.87404682412434
H            6.78331936589023       16.42482070575807       49.93925970938785
C           10.05832149909613       25.43955111666852       48.41558500215405
C           10.61911118340005       23.30900346182253       40.40416728753922
C            9.61726414290976       23.26111737299151       41.37821865697256
H            9.57704878154474       22.41689639092750       42.05995705953185
C            8.67516535098725       24.27090810892418       41.47826535282922
H            7.89336514972831       24.20503948963893       42.22643646838793
C            8.73661713505114       25.36217798017266       40.62056371621208
H            8.00678753989630       26.15867346554637       40.70307864426945
C            9.73600552063471       25.42951303164429       39.65964793377263
H            9.78857694357960       26.27977736875582       38.98990830047544
C           10.67219738214272       24.41245232096858       39.54934751311352
H           11.44669571468156       24.47512532066799       38.79404284424665
C           10.07421997850975       24.17216337508946       48.97721299741985
C            5.99690601773609       18.68195176010592       42.28718726937621
H            5.75729977440390       18.03644771296909       41.45068269330228
C            7.18115332730261       19.41987508998199       42.28289005142341
C            7.45323338254913       20.24524432001361       43.37873847606961
H            8.36304571093953       20.83647273394977       43.38951637704456
C            6.57388399473598       20.32352831144016       44.44653102987942
H            6.80026855714638       20.97307659835586       45.28321636398567
C            5.39691250722556       19.58507876106211       44.43613478378627
H            4.70873590272554       19.65186034167551       45.27045433789363
C            5.10998513996458       18.76984896093781       43.35135566106677
H            4.19027761146199       18.19707712956304       43.32885064029675
C           17.08844140621065       16.83911163830271       41.45460809825006
H           17.84166795406368       17.25592030019099       42.11319066519442
C           15.73619913982450       16.93629735160997       41.79531319105879
C           14.77963226303738       16.41507184299834       40.91962296697668
H           13.72608581752900       16.50599337529470       41.16451460495568
C           15.16434197209979       15.79706529779499       39.74012839147897
H           14.41100087113813       15.39464551124441       39.07262448394740
C           16.51105834374090       15.69835460723318       39.41627641444286
H           16.81289969822438       15.21743748630436       38.49349340274669
C           17.46958435101044       16.22321961671290       40.27268334955857
H           18.52094988432151       16.15415599685111       40.01937339840544
C           16.27625726707802       19.99292661482000       42.43247016786982
H           15.63473128612817       19.74216828602125       41.59303436836223
C           10.82396880726238       26.49174641857779       48.99998122247960
C           16.21941739241458       18.25286435353333       48.13843157986176
H           15.55854383157157       18.54779639113898       48.94473207237805
C           11.66218180545209       26.00536207260560       43.96763141025088
C           12.38290097290804       25.43320216395806       42.91803400982042
H           12.67443171066252       24.38955908309391       42.97888486259501
C           12.72295322770661       26.17634465489001       41.79906188232771
H           13.27830937629868       25.71023205813088       40.99285355235669
C           12.34728311269201       27.50934975896190       41.71175662954202
H           12.60882128098505       28.09128021282558       40.83603052106123
C           11.63261111758818       28.09348036305547       42.74900364770330
H           11.33648467327960       29.13401681214091       42.68637875946845
C           11.29132089046549       27.35134719957054       43.86868463642518
H           10.72160827474059       27.81613527793842       44.66516703623923
C           16.23476113096644       19.01644123812295       46.94559692896797
C            8.59774735901267       21.95139568398697       49.99396130263796
C           14.11827361130414       27.03206850060167       47.56133198017689
H           14.52751009133370       28.03489891734227       47.59389293549473
C           13.09186215340103       26.73973133637870       46.67698961892680
H           12.71142372279858       27.51797076628490       46.02631096352552
C           10.96208321873890       23.90885285157495       50.05549606700367
H           11.01397170775954       22.90089775245490       50.45144604394910
C            6.11162298004861       18.03158968034826       47.85398890608396
C            5.00908770623522       17.31976696412189       48.33940092579939
H            4.98859877239369       16.23836975551860       48.26618355744631
C            3.93387287860537       17.99003834955870       48.90171348749996
H            3.08694563067262       17.42562024211254       49.27381280727516
C            3.93913921869762       19.37582499437622       48.98869683625638
H            3.09674454982765       19.89587219401573       49.42898794886580
C            5.02388561494022       20.09348846111362       48.50425949189185
H            5.03507221568142       21.17617558692043       48.56224760509008
C            6.09904092677048       19.42539066664031       47.94043223250284
H            6.94195352013832       19.99155329912767       47.55825627521390
C            5.39473504310496       27.47846381449093       47.98662894012674
H            4.42532587083940       27.91893700659319       48.18715747204534
C            8.07601907567730       19.92378403375846       51.20756581227486
H            8.01080623546154       18.84176910622486       51.23219630741421
C           14.08792884926779       24.76640612046272       48.35511897947566
H           14.47126303861953       23.99358236481255       49.01071323212975
C            8.82865548157104       22.19624714658731       38.07550041882257
C            9.07441001212682       21.09636402405791       38.93974462189564
C            6.98576029342582       21.53866024639109       40.08604839510516
H            6.27703394197396       21.27327649033187       40.86128031282085
C            8.15325904955049       20.75383603188162       39.92090352170085
C           17.93645737878049       20.58185236483166       44.59851844724646
C            7.46579357427296       26.57944898051093       48.83164220967680
H            8.10743668073275       26.32009099504883       49.66574804390639
C            7.22406468123677       12.07698399494678       45.68904967249717
H            8.14298902329046       11.85789293536086       46.22027204944136
C           17.08784523418984       19.43507787053566       44.64515600168605
C           14.61650148010949       26.04907856153818       48.40515009147310
H           15.41626032256881       26.27983272218631       49.09864056095294
C            4.85559063479389       12.62040840760521       44.31793127687332
H            3.93663847323913       12.83972794857501       43.78599283073159
C           17.06582848276306       18.63581811660080       45.90009099669473
C           10.63882836521012       16.39446927331070       49.74155596435353
H           11.72101327987142       16.37885567591076       49.67991612478566
C            8.50577983031377       20.55920100335332       50.05348523644216
H            8.77762941389597       19.96850040329395       49.18492352537092
C           17.01486701929187       21.13899508162360       42.40621748965457
H           16.95805485749133       21.80771451445395       41.55438776485816
C            6.23533828412312       27.13701043615334       49.06069692661052
H            5.90313177690193       27.31882900578360       50.07605486320234
C           17.90009838569726       16.76095108392739       47.24370542293694
C           19.66081312784590       21.97831991910651       45.57096543727071
H           20.36642408012384       22.18218014511725       46.36777668583425
C           11.49781071954774       28.81749534524402       49.09695395253625
H           11.43891617826507       29.82978989512419       48.71465867730310
C           15.36480360017358       16.42982870995529       44.60866636651174
C           14.54538274088214       16.50402000289006       45.73901826284758
H           13.88946668673822       17.35993965806944       45.86623691680769
C           14.56595030646485       15.50524755675223       46.69782036682724
H           13.93761801343771       15.59063487194633       47.57712110173239
C           15.38998720764557       14.39968846222478       46.52808033515515
H           15.40064770198480       13.61181219356022       47.27171668449915
C           16.19762307397599       14.30694095648776       45.40299172058491
H           16.84081446638702       13.44565297526129       45.26606416435659
C           16.18748514424365       15.31236259663813       44.44799388799007
H           16.82345408278187       15.22978755976675       43.57449828011841
C           19.58034889663165       22.85749798236116       44.47714350436306
H           20.21834991831919       23.73281167095811       44.44821375394810
C            9.64306757247044       25.62484115845925       45.94101048027412
C            8.74816233998487       25.91898162804408       44.87595674131136
H            9.07278341176299       25.73736502562842       43.85721306574020
C            7.50600652140604       26.43451705774126       45.10818974560046
H            6.84664040457100       26.66409416196753       44.27867623481615
C            7.06617484800384       26.68691626908323       46.42871759802059
C            7.92100722801262       26.34390541556277       47.51110000941899
C            9.20421989338120       25.77976098245387       47.24711564252509
C           18.82957744294301       17.13250971066940       45.01521452484748
H           18.87394592935470       17.72251905372307       44.10680044246488
C           18.74641613243893       15.63551057028855       47.37067069484137
H           18.71414967257667       15.06072238113135       48.28940284360238
C           10.76949735652004       27.81841808991339       48.50626909777188
H           10.13417817479406       28.04024486128255       47.65667184816219
C           17.02274922392173       17.15591048200179       48.27953141524884
H           16.99921537851938       16.57919449018547       49.19728850473641
C           13.07122407487435       24.46855215689308       47.46301715319703
H           12.66794564799049       23.46158285799462       47.42460569042986
C           18.85563359358047       20.87160782083670       45.63535813288059
H           18.92584805864961       20.19703408334981       46.48063217732797
C           11.73149648519245       24.89296978161716       50.60472098797990
H           12.39333573804946       24.66988454442182       51.43400134531132
C           17.93144750088268       17.51867582214036       46.04008020014305
C            8.61394635246063       16.12651740587415       51.00380539637784
H            8.10948046926460       15.90159980091797       51.93610315974215
C            6.18686831147219       23.57494369569486       45.71136841144422
H            6.11211301483020       23.57172231349250       44.62986928593526
C            5.08386354491129       23.89944559689527       46.48970439791182
H            4.13969923275851       24.14569468162631       46.01898398333754
C            5.72066504005985       16.00719953662422       45.56835380445599
H            5.33716181900024       17.02071479788961       45.53383093500064
C            5.06428974242812       15.01112983015683       44.90576520799986
H            4.16179538124850       15.22985806641034       44.34616584279700
C            5.54068213570809       13.68019912245072       44.95376795353621
C            6.74647278501233       13.41026801570951       45.65619945194245
C            7.43733362837599       14.47312088615637       46.31063025106267
C            6.89761129923825       15.75013925288719       46.32272110251593
C            5.19704880356807       23.90921170147806       47.87323288151663
H            4.34156455272821       24.16706843133722       48.48635278439750
C            7.83107075419084       22.05743672517472       52.28380482714558
H            7.57185131901003       22.64621944010092       53.15584258504054
C           13.34256031474459       22.75112697499448       39.63218206009825
C           14.36749141591207       23.25889508747520       40.43535522112289
H           14.28754355432021       23.18128929663946       41.51502573108456
C           15.48629559153880       23.84629840350029       39.86572341752641
H           16.27137682363659       24.23829637193132       40.50211862597799
C           15.59925196788022       23.92760051675150       38.48415437727576
H           16.47419854887303       24.38477567796187       38.03764741861674
C           14.59331827574611       23.41525503220511       37.67586685151188
H           14.68191182449971       23.47011516003266       36.59723508819283
C           13.47192686011745       22.82970362292237       38.24246087134659
H           12.69616253294090       22.42170390175146       37.60495041889263
C            5.33985025065672       11.34007784865280       44.37806085087353
H            4.80743083128708       10.52980781211144       43.89437397883844
C           12.40916804632749       27.26743335402036       50.69564277886732
H           13.04504270266678       27.04525022529684       51.54525031512384
C            7.39115263488701       23.25412830335952       46.31776312490324
H            8.25139711417263       23.00629257701901       45.70488607694365
C           17.88547067466034       21.45331893760303       43.47621865232058
C           10.00073866887180       16.11369927818438       50.94224856524914
H           10.58279659638089       15.88331826102880       51.82643803352538
C           11.66307787297820       26.21776873345064       50.11394660730574
C           19.59449319338309       15.28087732467953       46.35501131962475
H           20.24247157511990       14.41871470558033       46.45935939298428
C            8.25968308196113       22.69508445754461       51.13009901641446
H            8.34444262849436       23.77573987658903       51.11393995552715
C            7.73446850016498       20.67284621534599       52.32491796738074
H            7.39887485811597       20.17816910469188       53.22858628407344
C            9.62800382137426       12.74075139348236       50.38165770608505
H           10.52945935258265       12.48137652216539       50.92540358773448
C            7.31981028749705       13.41804607273890       48.96789759244693
H            6.41874934595102       13.67820699773154       48.42466622227103
C            7.23183299854113       12.90081827366841       50.23364292926506
H            6.26124553666367       12.75176761154921       50.69202905949951
C           16.92250465190264       24.17088753011196       46.64450556324898
H           16.80886904192047       25.06883309450109       46.04833643676768
C           16.12611192794779       23.06670037882511       46.38460345723540
H           15.39173138731652       23.10473248363948       45.58612408484560
C           16.25991490245053       21.89983502247003       47.13916928455853
C           17.21665460124789       21.85838180628947       48.15953049335508
H           17.34914918153923       20.95134026051615       48.73857626320432
C           18.00558957828797       22.96728386971705       48.42231210180294
H           18.74138815794423       22.92598892029521       49.21669817623331
C           17.86051336855362       24.12387153983635       47.66676024330965
H           18.48334739108152       24.98658448645282       47.87101394531280
C            8.39361220329185       12.55867131618388       50.94779005267371
H            8.30438912363577       12.15047672681780       51.94748686798268
C            6.40413775291574       23.59552457548304       48.48030858200132
H            6.47510869284413       23.60891759685357       49.56123880101573
C           18.71115940260258       22.59935390257348       43.44985967729960
H           18.65426269035282       23.26218512664056       42.59348678811234
C            7.65372757401160       22.97691152079532       38.25964832096258
C            5.80055111669794       27.25505838438124       46.69713322654732
H            5.15835741695844       27.51347175233704       45.86264300462564
C            6.74762180298575       22.61982689719567       39.28429871325315
H            5.85103044638697       23.21316307607356       39.42396709144509
C           12.32516708768484       28.54200498821995       50.19988070492556
H           12.89404532010769       29.34478709174423       50.65362517843828
C           12.59806463809263       19.69502691817643       39.26800216447905
H           13.52111410919041       19.94212261879807       39.78381030832693
C           11.50376447972726       20.59852106208177       39.36661282041721
C           10.30233729304351       20.27546391768783       38.75939190392411
C           10.21646965731854       19.11622279358511       37.93101881622017
C           11.32356003525481       18.22858811831072       37.84108455569498
C           12.50696598288450       18.53801766194805       38.55209662244602
H           13.34927047648700       17.85674873954583       38.50269226922635
C            6.53328047541241       11.06847920146057       45.06998165598558
H            6.90570777936883       10.05165066705985       45.11136968182677
C           19.63979749607633       16.03936041913422       45.17079975741827
H           20.32582888263187       15.75442612355258       44.38176940507442
C            9.94158290547973       14.24758167628860       46.42910303221741
C            8.69556570407399       14.13336454027280       47.02664126628027
C            8.57923425938663       13.61053124148771       48.34871117089269
C            9.75097529576976       13.26677768301675       49.07595889971275
C           11.01278528349285       13.47615463953368       48.47186726331506
H           11.91172709041558       13.24519479713796       49.03230282654514
C           11.10191715623610       13.95304965654677       47.19624631908904
H           12.07676408559207       14.10325851295423       46.74527294473295
C           11.64435662336881       13.78067177290964       44.18746770352853
C           11.77292844005455       12.44369484473691       44.58053739322464
H           11.05381599854595       12.00882356292657       45.26518821544801
C           12.82535010830564       11.67248390069113       44.11276231606981
H           12.91275145066470       10.63937166959617       44.42799509606454
C           13.76384156880195       12.21789478581053       43.24698561204227
H           14.58719535166001       11.61304713754538       42.88616242085528
C           13.64543434497093       13.54158450706706       42.84734348621733
H           14.37483250054010       13.97762825400820       42.17388095311244
C           12.59439226499028       14.31405553516916       43.31464020154360
H           12.50947445549044       15.35047003764657       43.00387322723580
C           14.04470578802437       20.41394921058949       48.20038197325989
C           14.20424553196426       21.16654141463139       49.36476348409368
H           15.08226837456879       21.78851267953083       49.49167456968854
C           13.25177226385413       21.12380238974413       50.37351805085163
H           13.40026295623069       21.70885615485003       51.27357705972781
C           12.11658827360033       20.33961057087895       50.23156053347728
H           11.36801818004123       20.30928232007678       51.01447519895889
C           11.94493037108456       19.58462819670522       49.07781075852522
H           11.06823910219442       18.95873102309564       48.96394949996309
C           12.90207019240988       19.61736548087729       48.07673783965449
H           12.76486909971608       19.01467324249004       47.18482946050254
C            9.05958246292389       18.83008485263850       37.16714246163425
H            8.22121703112972       19.51584341723600       37.20412323432288
C           10.08202872536132       16.81865421865132       36.31898787992719
H           10.01204302054361       15.93527704121323       35.69544902582878
C            9.72022926458072       22.54361517993072       37.03123192116167
H           10.60289499850506       21.93497057661900       36.87096143029810
C           11.22165000977523       17.07196621403083       37.03628963484390
H           12.06888626755627       16.39700531094465       36.98546348146130
C            8.31463764089904       24.40421598960837       36.42195518987236
H            8.13257096439158       25.25457225671939       35.77555607010469
C            9.46791635173765       23.62237793824426       36.22610674797929
H           10.15513864928557       23.87757921429097       35.42798806553328
C            8.99895203046540       17.71283027324770       36.37635439742373
H            8.11047727365030       17.51202740383619       35.78929433816748
C            7.42485208089631       24.08649636650767       37.41385073031043
H            6.52916782498604       24.67893816884611       37.56302675195641
