377
 energy: -614.510940213148 gnorm: 0.000035398613 xtb: 6.5.1 (579679a)
Au           0.00001089871473        3.92208349144811        7.81796589527639
Au           2.30604337952527        4.97635092961081        6.91583631915392
Au           2.23710242431000        2.84451797821583        8.80420129262844
Au           0.97601474179325        4.98267429767933       10.07973012586228
Au           0.98521715532993        2.91484124870726        5.55921631330566
P            3.96718587877236        6.59668994159140        6.46256148434165
P            4.09957303672716        1.47735945456721        9.30867315460563
P            1.42649339557269        6.60989563902511       11.73348274612620
P            1.51291393792222        1.58609521600427        3.67284571807786
C            5.26328586751523        5.99584135261176        5.34991029759057
C            6.59097337475747        6.44364140871376        5.38057929712033
C            7.53962677369789        5.88523366274314        4.54930314166649
C            7.19373981586240        4.85245360147752        3.66598266746592
C            5.86908271801921        4.40811814282576        3.61546149324443
C            4.92732677518897        4.97715485255051        4.45472733326396
O            8.18865129076172        4.34949050839836        2.92122951984772
C            7.98834286480581        3.22031411811169        2.08552910781263
C            4.81206141216341        7.15288496080592        7.96774220264726
C            5.42949666285590        8.40418717436564        8.09669620326530
C            6.02205582159046        8.77894984769577        9.28410531511995
C            6.00983880222694        7.91444024754937       10.38660352193621
C            5.40320309475927        6.66225329966647       10.27020004219583
C            4.81352796237046        6.29916658045478        9.07253609752624
O            6.58414551115759        8.37369522257322       11.51265205603943
C            6.59207393638537        7.59900250220383       12.69966080038665
C            3.30169508932086        8.10400772704982        5.70635224596839
C            4.05359218092992        8.96966096615488        4.90171177141340
C            3.48502083267440       10.10832909424757        4.36975302742702
C            2.14236217684548       10.41716893211398        4.62651611392424
C            1.37973495191657        9.55843398448737        5.42174470810031
C            1.96094789728791        8.41493279814725        5.94249637912427
O            1.66993991925818       11.54223604908458        4.06387751202734
C            0.32198047821375       11.94442160782031        4.24317259983402
C            4.11551718908069        0.74159565781443       10.96225618495857
C            4.83547244115880       -0.41001546952567       11.29094791033089
C            4.79965532151383       -0.93285646954002       12.57236255961376
C            4.03892056836005       -0.30351659723524       13.56273982402288
C            3.32612389699045        0.86100483703763       13.24585095753492
C            3.35594174368519        1.36141206870246       11.96257641549414
O            3.91931887507883       -0.74215191016415       14.82463544156275
C            4.47167058096521       -1.99260951111247       15.21763189761210
C            5.58767521636372        2.50593920058644        9.21114300456352
C            6.30572063857909        2.91867676455609       10.33448905705870
C            7.33670958871106        3.83970980400007       10.23084992147629
C            7.67056569015297        4.37170502228228        8.98298875620497
C            6.96449727868307        3.95240165238350        7.84648308005298
C            5.93203968404599        3.04939678792862        7.96437990142539
O            8.62300451030444        5.29504161466823        8.77397545913979
C            9.42630399927637        5.77897822450218        9.83977876063834
C            4.36358182793281        0.14525562128174        8.10931599241454
C            3.24530226700403       -0.40350761334171        7.47684136723056
C            3.36983109974668       -1.38731846152623        6.51063400031090
C            4.64155658157916       -1.83842528161355        6.14846813956535
C            5.77071645045009       -1.29421398228323        6.77364166418931
C            5.63278976507294       -0.31881772835642        7.73904543581876
O            4.87459968350903       -2.76778000572247        5.20109653044028
C            3.80119388016977       -3.44257447983698        4.56464660980056
C           -0.07714285931777        7.14949211325803       12.59276954074685
C           -1.18988561701983        6.30722407455524       12.56244666484473
C           -2.38665267778037        6.66230562711746       13.15851207642171
C           -2.49286972497554        7.89327531867848       13.80853413668198
C           -1.38320103225157        8.74757754578471       13.85104105059209
C           -0.19775747001231        8.38196703902007       13.24889233685859
O           -3.61473541775031        8.33915379343361       14.40159854111787
C           -4.80936454757539        7.57645323368202       14.37401192132094
C            2.15493853940184        8.13347568067668       11.07331345470811
C            2.96270834245982        9.00178158617109       11.81842632694955
C            3.46590184679032       10.15477240540419       11.25258610622645
C            3.17707299163811       10.47537103194373        9.91924505284408
C            2.37670245870589        9.61512704658807        9.16364785054049
C            1.88431720329627        8.45773976677651        9.74209614790337
O            3.71622204635442       11.61224507355634        9.44803544279323
C            3.51665183423805       12.01933794028185        8.10432789339978
C            2.55683249609026        6.00683328691814       13.01271478212338
C            2.58135862038901        6.48499153081641       14.32984857104398
C            3.43829251244349        5.93509915482508       15.26045406945687
C            4.29232676464567        4.88042032351049       14.90711118581376
C            4.27924483419337        4.39692983617958       13.59549603511866
C            3.41619135463644        4.95945637209227       12.67152261101716
O            5.07406068079363        4.39632380289696       15.88308095085427
C            5.90708076022104        3.26788687649715       15.66973384881000
C            0.38847017324847        0.18485771838064        3.43609248430593
C            0.02048422713895       -0.30950039433527        2.17803546070974
C           -0.86762886430129       -1.35913352640950        2.06775353968847
C           -1.41523554026064       -1.94853646531513        3.21427487409044
C           -1.05887541578238       -1.46348293489424        4.47498669452553
C           -0.17011775295018       -0.40632602478481        4.57183605466722
O           -2.28647522760168       -2.95612400208789        3.00926058019990
C           -2.83719479714270       -3.67502280985892        4.10139369849902
C            1.33864406802464        2.60626574985617        2.18710484649005
C            2.43145319481819        3.09133586802152        1.46657546282580
C            2.26790320820278        4.02057203516474        0.45101514209991
C            0.99018827952436        4.49128431430448        0.13856116864138
C           -0.11575244901558        3.99588428905945        0.84391640636239
C            0.06037591545199        3.08287926587859        1.85930840125168
O            0.72425789103962        5.42323964533134       -0.79108373151427
C            1.75830053385104        5.98966066936293       -1.58255435422577
C            3.19841162135510        0.92645371260957        3.62541102904826
C            4.15667745051054        1.50181013766596        4.46797788861537
C            5.46080875201140        1.05656934847511        4.47095515107337
C            5.84131347207241       -0.00800937721430        3.64350506365885
C            4.89229017211241       -0.59652102228139        2.80183857658804
C            3.58992786001362       -0.12743940117442        2.79478920456073
O            7.12357281152718       -0.39461081898862        3.73259790481942
C            7.56813200762105       -1.58778803170879        3.09842353724815
Au          -2.30604090895738        4.97635403784150        8.72016912673598
Au          -2.23709816710738        2.84461552662776        6.83178207967913
Au          -0.97598559934557        4.98271206881865        5.55623394971365
Au          -0.98521388561389        2.91475680042412       10.07678242170975
P           -3.96718523676899        6.59668820563589        9.17344802116548
P           -4.09956787046900        1.47736360637476        6.32732115764969
P           -1.42650003650484        6.60991007572863        3.90252441761830
P           -1.51289901232501        1.58607662111026       11.96316338111169
C           -5.26329528707522        5.99584468662280       10.28608999251864
C           -4.81205307146281        7.15288510465259        7.66826457468349
C           -3.30169003072073        8.10400667320105        9.92965370758193
C           -4.11550706177692        0.74159521173345        4.67373924712421
C           -5.58767082635203        2.50594382871210        6.42483987395111
C           -4.36358730372776        0.14526095642868        7.52668045754447
C            0.07713170017567        7.14951322519878        3.04322931074891
C           -2.15494554557064        8.13349497332540        4.56268479217492
C           -2.55683736596466        6.00684047404603        2.62329200213069
C           -0.38845955466932        0.18483613415253       12.19992323410159
C           -1.33863265872646        2.60624850090967       13.44890362351375
C           -3.19839897763746        0.92644134799962       12.01059582358269
C           -6.59097997255759        6.44365183782177       10.25540893811334
C           -4.92734972667737        4.97715511138043       11.18127452706185
C           -5.42948548131980        8.40418794423403        7.53930436275045
C           -4.81352535508366        6.29915918461352        6.56347662497950
C           -4.05358236916016        8.96966816555493       10.73428944009367
C           -1.96094119115809        8.41492333440434        9.69350802186162
C           -4.83546585534695       -0.41001265928785        4.34504403798823
C           -3.35593061312529        1.36140996798972        3.67341875941532
C           -6.30571628054833        2.91867311797087        5.30149225104540
C           -5.93203997093838        3.04940342257545        7.67159946870460
C           -3.24531313621071       -0.40350775080822        8.15915915398844
C           -5.63279676737387       -0.31880671158030        7.89695231215250
C            1.18987334798494        6.30724428582659        3.07354226768428
C            0.19774427240268        8.38198953451174        2.38711001074629
C           -2.96272262312864        9.00180185317927        3.81758093910523
C           -1.88431084744233        8.45776217066659        5.89389904379420
C           -2.58137914715913        6.48500662233472        1.30616148392438
C           -3.41618169527362        4.95945181350945        2.96448141827826
C           -0.02046934675954       -0.30951102568583       13.45798406392340
C            0.17012246696911       -0.40635964971555       11.06418272205379
C           -2.43144538458299        3.09132590570042       14.16942401012912
C           -0.06036378857270        3.08285282042856       13.77671064910380
C           -4.15665859673499        1.50180502514343       11.16802490734004
C           -3.58992803382665       -0.12744861125224       12.84121773660851
C           -7.53964387501772        5.88524258918537       11.08667160261308
C           -5.86911736228960        4.40811538101045       12.02052573909721
C           -6.02204508932405        8.77894337067499        6.35189269176757
C           -5.40320015784674        6.66223696419364        5.36580893121825
C           -3.48500199704595       10.10833435643799       11.26624289926979
C           -1.37971808816797        9.55842248940753       10.21425435432283
C           -4.79964409813028       -0.93285336510343        3.06362974848797
C           -3.32610743904532        0.86100355067133        2.39014271817130
C           -7.33670966261824        3.83970209921574        5.40512222552054
C           -6.96450022460574        3.95240478840298        7.78949167752084
C           -3.36984702394929       -1.38731575172275        9.12536918979790
C           -5.77073034419720       -1.29419889956535        8.86235899853519
C            2.38664104443221        6.66232526557234        2.47747567174858
C            1.38318721466298        8.74760143782363        1.78496060896199
C           -3.46591254755734       10.15479068380045        4.38342977399315
C           -2.37669110928203        9.61514716961230        6.47235677239387
C           -3.43830926336409        5.93510666787216        0.37555752133045
C           -4.27923089293046        4.39691462382209        2.04050947957985
C            0.86764493144524       -1.35914205065200       13.56827190847984
C            1.05888124010475       -1.46351546209300       11.16103880948228
C           -2.26789743071261        4.02056212771152       15.18498422303708
C            0.11576192857405        3.99585713639312       14.79210330183563
C           -5.46079398665373        1.05657584076198       11.16504531288777
C           -4.89229515144492       -0.59651795280581       12.83416473990105
C           -7.19377113758814        4.85245462375111       11.96998793759644
C           -6.00983105514331        7.91442593057178        5.24939974420978
C           -2.14234106781278       10.41716480952876       11.00947832193454
C           -4.03890149878793       -0.30351927066179        2.07325447160026
C           -7.67057016562755        4.37169981735236        6.65298226378371
C           -4.64157442460810       -1.83841824128927        9.48753322822831
C            2.49285831821979        7.89330003338384        1.82746220447499
C           -3.17707264276141       10.47538916691272        5.71676902804716
C           -4.29232410537967        4.88041001196471        0.72889653826372
C            1.41524797323806       -1.94855519094055       12.42175386501127
C           -0.99018170322437        4.49126521446510       15.49744789935472
C           -5.84131050763558       -0.00799743008374       11.99249699763921
O           -8.18869491370385        4.34948693539285       12.71472291606554
O           -6.58413869126649        8.37367565780235        4.12334836389376
O           -1.66991263805966       11.54223272040130       11.57211278590627
O           -3.91929261463152       -0.74216819942317        0.81136364100204
O           -8.62301732376783        5.29502778014590        6.86199472588219
O           -4.87462473186401       -2.76778006024741       10.43489643536531
O            3.61472318277258        8.33918312079554        1.23439857259574
O           -3.71622195652245       11.61226041582970        6.18798629713938
O           -5.07405455081918        4.39630912291514       -0.24707398289406
O            2.28648946502283       -2.95613958031018       12.62677586167521
O           -0.72425397864612        5.42321822925906       16.42709616316016
O           -7.12357476695252       -0.39458439491295       11.90340554013382
C           -7.98839792824112        3.22030570388430       13.55041899074116
C           -6.59205995131302        7.59897884016936        2.93634267892080
C           -0.32194947020100       11.94440627488878       11.39282164565761
C           -4.47164777488014       -1.99263106767952        0.41838923017960
C           -9.42632264558986        5.77895420579885        5.79619187406824
C           -3.80122476030853       -3.44257686462246       11.07135290957471
C            4.80934793756145        7.57647485943023        1.26196845327247
C           -3.51664009026716       12.01934620403002        7.53169451345324
C           -5.90706911711060        3.26786794439112       -0.03372766290289
C            2.83720887009647       -3.67505046815941       11.53465105639727
C           -1.75830239529709        5.98965358007992       17.21854864150028
C           -7.56815068936992       -1.58775339687536       12.53758321262189
H            0.64440437143953        9.06424790389696       13.27399227195411
H            5.43078957385841        9.09364289632400        7.25999863485660
H            5.09041239619184        8.73862439181642        4.68470881928642
H            5.36225276433056       -1.82964556254369       12.79589210694601
H            5.42959494820110       -0.90692519869790       10.53173553203364
H            6.88224971613052        7.22290052091956        6.07539027933384
H            7.25952987233073        3.43382870653448        1.29554765195827
H            8.95799659747504        3.00395394851087        1.63584316739343
H            7.65361610692883        2.35393157038429        2.66734229997749
H            4.06033982101787       10.77497510605319        3.73941867883863
H            1.35662466827822        7.74032003652961        6.54203410031738
H            6.05477447157128        2.51617761000743       11.30998043261559
H            7.87025828265059        4.14059749773801       11.12326177541743
H            7.23901249284516        4.36499901205623        6.88394677647433
H            9.98300128096412        4.96522452200723       10.31601855526399
H           10.12537599737962        6.48639079918370        9.39251404000772
H            8.81636755852006        6.29474872068893       10.59006109711090
H            2.73849551032909        1.33975300481826       14.01952648540296
H            2.25510130539490       -0.04395337314867        7.74117926768042
H            5.37420152616831        2.75493531271381        7.08147649528963
H            0.33740779698631        9.76656138528977        5.62516900640125
H            2.48065675958942       -1.78234872734347        6.03578476771281
H            5.56398794187782       -1.98334123069435       15.14356251127252
H            4.17868979718587       -2.13662531140953       16.25798144987594
H            4.06517169980309       -2.80389350293179       14.60499253155202
H            6.51646212443367        0.10113378563870        8.20559887858065
H            8.56862467381295        6.22171231725383        4.57621572905271
H            3.18471000138219       -2.74617277583522        3.98413173415078
H            4.25714718735261       -4.16962443253441        3.89163200868957
H            3.17348805447974       -3.96415010836340        5.29520731553856
H            6.49253816408818        9.74877298711788        9.38858504261835
H            4.33877563182944        5.32620320783350        8.99334196544097
H            2.77478349477399        2.24475600941157       11.71819915265833
H            6.75066009537404       -1.64504139095301        6.47441861159892
H           -1.11837554327997        5.34908935983217       12.05746539586141
H           -3.22651774202556        5.98152027172702       13.11354842300272
H            5.57216181472262        3.61475592404942        2.94149474534127
H            5.38442780200417        5.97238419839588       11.10378851151921
H            0.09665932796233       12.11909174674329        5.30151562979468
H            0.20920474805112       12.87660287251982        3.68856752385380
H           -0.37265538136344       11.19618672628994        3.84369332447058
H            7.13326914861816        6.65644014698897       12.55678344809002
H            7.10471565321648        8.20145803200018       13.45042427737833
H            5.57235274863901        7.38262228950416       13.03940085954459
H            3.90485694447277        4.61305310658337        4.42701662617338
H           -1.48042489174877        9.70220850555338       14.35306102911160
H            2.86376861969214       -0.58893304323421        2.13447921528137
H            4.92389021349255        3.58090791593089       13.29485080347449
H            2.14721333890934        9.83292037212806        8.12872960530287
H            6.67136668558252        3.47603770530010       14.91241744534980
H            6.38942118656807        3.06518652800603       16.62653062324222
H            5.31861313943969        2.39533919455094       15.36418181761671
H           -0.80040066289873        2.72973443901318        2.41783623283444
H            7.51512860583722       -1.50059259646281        2.00827801241830
H            8.60673603153307       -1.72097639654484        3.40251764804479
H            6.97365788412183       -2.44497107738272        3.43134818459384
H           -1.47739627408535       -1.89132401595553        5.37708026255741
H            3.20669293869989        8.76153292172396       12.84704479388417
H            1.91005715814074        7.28180117584103       14.62842779203518
H           -1.16500352906701       -1.73523336467485        1.09669836127507
H            0.09113031893448       -0.02286633854706        5.55384360448003
H            6.20283149786573        1.50234602780143        5.12177779862401
H           -3.45811862416632       -3.02566287409894        4.72962846574110
H           -3.45824230124707       -4.45857255118707        3.66577121911606
H           -2.04995996663247       -4.12996644150649        4.71220076784357
H            4.09940819831771       10.82306094091289       11.82249234409109
H            3.39779079712706        4.56884217188253       11.65867326062254
H            3.45619550324936        6.29704533269468       16.28096730687852
H            3.13757378692835        4.37886474250531       -0.08460708641615
H           -1.10196220461728        4.35917412128258        0.58385690424764
H            0.42753198364421        0.14366663211556        1.28143561929423
H            3.43013161967456        2.74129726158081        1.70491440108969
H            2.45417637314717       12.18620538342790        7.89305000964278
H            4.06188552485353       12.95674996653393        7.98928046030207
H            3.91384893782085       11.27766406409413        7.40135962274181
H            2.27994951877926        5.22004041648259       -2.16082802626248
H            1.26845170113745        6.68723026517358       -2.26272892292078
H            2.47813313002381        6.53276191612145       -0.95993057750686
H            5.16490803339669       -1.41748007576497        2.15187416259543
H           -4.67925133577348        6.61415992421300       14.88266334352948
H           -5.55793851676392        8.16796724858356       14.90232743162214
H           -5.14331978029145        7.39953732303495       13.34484949920127
H            3.86379685083489        2.30631012622072        5.13466495218762
H            1.28084778726579        7.78205734010334        9.14286604648236
H           -1.91009169135877        7.28182741336559        1.00758171107356
H            1.11835892861611        5.34910945863778        3.57852183159234
H           -5.57221012418185        3.61474840544562       12.69449282004870
H           -3.45622300058290        6.29705995854777       -0.64495270180032
H           -4.92386303700220        3.58088257588915        2.34115617999279
H            1.47739697872359       -1.89136586332740       10.25894731704553
H           -3.13757075392531        4.37886088634535       15.72059783621829
H           -6.20281025393876        1.50235804700519       10.51421941312894
H           -5.16492335003361       -1.41747451808900       13.48412793363838
H            1.10197256956208        4.35914017819507       15.05216856583751
H           -6.05476124827732        2.51616953260201        4.32600590196417
H           -6.88224803501307        7.22291631800913        9.56060035616055
H           -0.33739050314866        9.76654318215681       10.01082536037099
H           -5.09040434167491        8.73864180451722       10.95129549373630
H           -0.64441527163668        9.06427356738260        2.36201466150230
H           -3.39776779213351        4.56883371896314        3.97732844689177
H           -1.35662489649030        7.74030316379873        9.09397209769507
H           -6.49252410456465        9.74876752976686        6.24740966734644
H           -2.86377724558221       -0.58895150482557       13.50153093821160
H           -2.48067420333897       -1.78234913613306        9.60021737664532
H           -4.09942257212329       10.82308016518104        3.81352967190290
H           -1.28083652813740        7.78207756636379        6.49312020124470
H           -2.14718728055073        9.83293881589866        7.50727238997265
H            1.16502455970352       -1.73523237821202       14.53932939790417
H           -5.43077507855805        9.09364877032007        8.37599776485570
H           -6.51646696197443        0.10115085429504        7.43040285875188
H           -3.90488261163137        4.61304773929231       11.20899337583548
H           -5.42959423978104       -0.90692038415516        5.10425246718138
H           -2.77477163693387        2.24475141377304        3.91779943158906
H           -2.25511134927369       -0.04395479177829        7.89482480898855
H           -0.09112930834268       -0.02290933801428       10.08217196527038
H           -5.38442660533302        5.97235822985139        4.53222768243307
H           -4.06031609540771       10.77498779106116       11.89657318260150
H           -5.36224342857094       -1.82964025981840        2.84009936982005
H           -2.73847508983288        1.33975139664377        1.61646968296725
H           -7.87025795592323        4.14057415651964        4.51270411986566
H           -7.23901813247178        4.36499927968128        8.75202864203405
H           -3.43012474340271        2.74129580388331       13.93107551710932
H           -3.20671598130304        8.76155981158601        2.78896291009432
H            0.80041503660841        2.72970453355961       13.21818840985271
H           -4.33877452575733        5.32619657485190        6.64268155924821
H           -3.86377132226937        2.30630155593589       10.50133590049354
H           -8.56863962181881        6.22172459186307       11.05975124782291
H           -6.75067629770158       -1.64501942924652        9.16158214458960
H            3.22650351426178        5.98153533961734        2.52243348480515
H           -5.37419648616515        2.75494808959837        8.55450080701236
H           -0.42751231699100        0.14366302582056       14.35458268573225
H            1.48040771916242        9.70223474137464        1.28294539011770
H            3.45812919439499       -3.02569613869816       10.90640701548134
H            3.45826271997195       -4.45859064742246       11.97028181752366
H            2.04997330784780       -4.13000713074067       10.92385427914943
H           -7.25959125053478        3.43381183959330       14.34040816012206
H           -8.95805589989151        3.00394834523703       14.00009836431872
H           -7.65366619343601        2.35392759614081       12.96860184359547
H           -9.98301047270684        4.96519500183605        5.31995120028850
H          -10.12539308878348        6.48636681548743        6.24346236332870
H           -8.81639186919446        6.29471598150983        5.04589974937529
H            4.67922322471535        6.61418410283596        0.75331610062455
H            5.55792135298966        8.16799153850232        0.73365273448260
H            5.14330661943683        7.39954049617276        2.29112606013065
H           -3.18473319602322       -2.74617316638093       11.65185591164544
H           -4.25718964382689       -4.16962088981954       11.74436898539153
H           -3.17351067199820       -3.96415244616015       10.34079985501241
H           -5.56396427121038       -1.98336065636480        0.49246264572999
H           -4.17866454856901       -2.13666523482163       -0.62195824203400
H           -4.06516063355359       -2.80390214277528        1.03105313511076
H           -6.67134618312042        3.47600565696661        0.72360078511055
H           -6.38941811746341        3.06517653802044       -0.99052302668033
H           -5.31859603971768        2.39532197457238        0.27181762626450
H           -2.27996295056528        5.22004272229990       17.79682435880012
H           -1.26845782077200        6.68722504905200       17.89872423912205
H           -2.47812221720169        6.53275425171678       16.59590926297026
H           -7.13324753352408        6.65641258116584        3.07922118706485
H           -7.10470330978194        8.20143046659486        2.18557616984087
H           -5.57233620604432        7.38259910290011        2.59661046892448
H           -2.45416306542271       12.18620847821458        7.74296608963857
H           -4.06187646143831       12.95675647031100        7.64675145824606
H           -3.91382251249029       11.27766572048657        8.23466360870654
H           -7.51515272253506       -1.50055254207952       13.62772881969284
H           -8.60675514187546       -1.72093241632452       12.23348657690837
H           -6.97368713571060       -2.44494543858981       12.20466254120968
H           -0.09661858106157       12.11905152038157       10.33447672998324
H           -0.20917254330632       12.87659657725865       11.94741256069253
H            0.37267945774092       11.19617428160983       11.79231824650774
