201
 energy: -326.901456999119 gnorm: 0.000351067096 xtb: 6.5.1 (579679a)
Au         -13.39215806305898       -9.66403974422079       -9.37907511819782
Au         -10.17987257147320       -9.81368762290729       -8.53447648530641
Au         -12.21274336266571      -12.32552127597633       -7.76550977709516
Au         -14.12168848699643       -8.42798348575147       -6.64726997321023
Au         -10.88314684864273       -8.35195047835043       -5.90883550417635
Au         -12.72306496197359      -10.97992569697203       -5.03557467480609
Au         -15.77166296536147       -7.86864283784046       -9.08467168702062
Au          -8.22530678783167       -7.95023046046946       -7.23445001212972
Au         -12.75793262602983      -13.96185972104652       -5.31632164270850
P          -16.54070929091972       -9.78599834995978      -10.19537260006767
P          -15.29581032848265       -5.77612968362651       -8.13695169165827
P           -8.34838566197375       -7.30209049952920       -9.48590330046319
P           -7.76430961448761       -8.43926844507561       -4.98711178962531
P          -10.81806229272088      -14.86873661620088       -6.27286521824150
P          -14.73667829313611      -13.39416299556531       -4.19119637488278
C          -18.85941499271834      -10.70447142417228      -11.51000993257619
H          -18.19714274559028      -11.14852665117780      -12.24457315835522
C          -18.32560317401386       -9.99648001481568      -10.42761601642709
C          -19.19458805003068       -9.41413766371560       -9.49901989852573
H          -18.78710585747511       -8.85073667922558       -8.66497939785537
C          -20.56598101237451       -9.54798436821216       -9.64197586816829
H          -21.22956281138948       -9.09191706026652       -8.91671159240133
C          -21.08628366867026      -10.25597088345923      -10.71755726884657
H          -22.15913673323512      -10.35334804736432      -10.83325654733132
C          -20.23237632165354      -10.83122108613490      -11.64928292681747
H          -20.63642061309398      -11.37835227018602      -12.49283711900709
C          -14.69478444909135      -10.02508827613930      -14.40429012266912
H          -14.26652679850016      -10.06307871600985      -15.39877961392039
C          -14.76915948582075      -11.17797265290965      -13.63511393910526
H          -14.39954515673597      -12.11840228345658      -14.02680128485227
C          -15.32033103978692      -11.13645985720100      -12.36338091190500
H          -15.37563215826716      -12.04177283430473      -11.77024373125139
C          -15.80386608751482       -9.93145208173528      -11.84597204867453
C          -15.71769380254711       -8.77385639857647      -12.62686710713898
H          -16.08828257410087       -7.83348666568577      -12.23178075014128
C          -15.17029796472268       -8.82227554403641      -13.89815366392340
H          -15.11465781560966       -7.91927069137641      -14.49462808218215
C          -14.95722742515547      -13.49404396904230       -8.14231018636517
H          -14.51030402221052      -14.36289474507894       -7.67600134961986
C          -16.28752446295426      -13.51574249990701       -8.51502456178157
H          -16.90686604837062      -14.38631877508538       -8.33339231756711
C          -16.80768128733602      -12.39265947244110       -9.14030399419361
H          -17.83944515203313      -12.36231505520840       -9.46672347687835
C          -15.98014745455084      -11.30216946929999       -9.36052065240353
N          -14.70070507519976      -11.29300358275719       -8.95221066807479
C          -14.16342769232037      -12.36827857150575       -8.35449612582865
C          -15.70155856537185       -4.28438697078584       -9.08264656957168
C          -16.00871327046729       -3.06775818253346       -8.46357879111036
H          -16.01269438351629       -2.99786625805350       -7.38168421239202
C          -16.31602783474448       -1.95507808302551       -9.23038850853868
H          -16.55556322281527       -1.01803523502182       -8.74176188383431
C          -16.32283025225857       -2.04055824480251      -10.61634300182204
H          -16.56818562330761       -1.16922076858665      -11.21169805610734
C          -16.02389695732278       -3.24498786213381      -11.23984995122245
H          -16.03516095463402       -3.31719503463353      -12.32105920783402
C          -15.71943279651764       -4.36197843111212      -10.47910317829771
H          -15.49671842019933       -5.30694467088580      -10.96545947735168
C          -17.41344877542086       -6.03229539485483       -6.38497775461521
H          -17.91479081070794       -6.48390696723752       -7.23493651932628
C          -18.07946551658834       -5.90337331424540       -5.17747003432686
H          -19.10058222271035       -6.25449813164321       -5.08620304113370
C          -17.43855388656552       -5.32613677075007       -4.08891065306334
H          -17.95941329390985       -5.22531043223999       -3.14423793910684
C          -16.13058055112209       -4.87853736698349       -4.21259229182392
H          -15.62736930081714       -4.42718045302828       -3.36553951153154
C          -15.46016146475657       -5.00142623989457       -5.42010048373882
H          -14.43904004003309       -4.64905051180482       -5.50780234908298
C          -16.09719643694251       -5.57881397854200       -6.52223886494191
C          -13.52776000965660       -5.62358721956844       -7.73588983839191
C          -12.78715048025431       -4.48358179179748       -8.00875239906694
H          -13.25891540386932       -3.63466929870989       -8.48704113884795
C          -11.44924045057754       -4.44811344428129       -7.64601757537143
H          -10.84500028262003       -3.56971909043595       -7.84042905192961
C          -10.91602636124662       -5.55941225617588       -7.02176886334869
H           -9.88210735388831       -5.55744507970684       -6.70049080234873
C          -11.68450042915094       -6.69889360853938       -6.79035304926283
N          -12.97398456257880       -6.70488457557973       -7.16349926279526
C           -6.30038817909223       -3.36084843888653      -10.67916558790981
H           -5.81390390505311       -2.43021584455093      -10.94588454781272
C           -6.78803656438648       -3.54449471779959       -9.39179807081665
H           -6.68399538145234       -2.75964489520863       -8.65184590146409
C           -7.40099414035152       -4.73799442422499       -9.04695800635843
H           -7.77234811973192       -4.88711780193774       -8.03751414331802
C           -7.54159057764659       -5.76034633525072       -9.99118706763175
C           -7.04373422683993       -5.56744301970503      -11.28451667508776
H           -7.13418684710984       -6.35739554657198      -12.02152485456175
C           -6.42819002530838       -4.37251393308819      -11.62173675713505
H           -6.04266591193681       -4.23355969317644      -12.62485466912622
C           -7.69236904366817       -8.59145435043490      -10.57974430143689
C           -8.32854764453212       -8.99047715037094      -11.75852412999533
H           -9.25711650887908       -8.51970765058389      -12.05935072028898
C           -7.77487278155049       -9.98825862590985      -12.54643614252017
H           -8.27615173492762      -10.28803685110269      -13.45930074048589
C           -6.58494835382925      -10.59682997998537      -12.17240938018266
H           -6.15457183468839      -11.37389764530567      -12.79274107461167
C           -5.94583861921117      -10.20843611649670      -11.00201523207775
H           -5.01632272063147      -10.68011792707431      -10.70569299801677
C           -6.49660797771774       -9.21581632013847      -10.20857476270981
H           -5.99725610581080       -8.91391279898441       -9.29359542974084
C          -10.07676671466604       -7.14381921661800      -10.03048491975710
C          -10.53440798264621       -6.08221823511454      -10.79590895392299
H           -9.85169012573200       -5.29584870515090      -11.09177051941444
C          -11.86564838504472       -6.05793819718904      -11.18347156054510
H          -12.25284788873285       -5.24493729764633      -11.78646508096629
C          -12.67670301288410       -7.10438232390301      -10.78805568325895
H          -13.71451596218778       -7.13256404428018      -11.09523570765486
C          -12.18750441712263       -8.14010425289079       -9.99402989096978
N          -10.89670039528299       -8.12745614750557       -9.62584453106545
C           -6.04573239265404       -8.74988383753704       -4.50387606852247
C           -5.16557720201123       -9.26761612094411       -5.45980714915978
H           -5.52479808845729       -9.46862645017138       -6.46463582744530
C           -3.84304937743420       -9.51829621834688       -5.13253029714432
H           -3.17008332376091       -9.91888794633464       -5.88152489621806
C           -3.38134014922132       -9.24682292788427       -3.85114007516110
H           -2.34490957734517       -9.43566619722960       -3.59809778199614
C           -4.24511154928314       -8.72532085749407       -2.89711414676469
H           -3.88518440228508       -8.50672728122797       -1.89868988655777
C           -5.57027519631083       -8.47580059658373       -3.21681067476621
H           -6.23885796032744       -8.06114037011787       -2.47085819374890
C           -8.36545818884472       -7.12910527080656       -3.88656787850840
C           -8.14594854516450       -5.80166801493314       -4.26998766168522
H           -7.62638381684198       -5.59247363596350       -5.19949759103736
C           -8.58087728770023       -4.75764414313140       -3.47054529088702
H           -8.39979854543832       -3.73407049517393       -3.77681017783307
C           -9.24723066584091       -5.02418526966695       -2.28143301707052
H           -9.58811230133655       -4.20753045159840       -1.65633251354586
C           -9.47557051949697       -6.33745075035252       -1.89483416190733
H           -9.99459590941215       -6.54945635825473       -0.96739969550241
C           -9.03843265032325       -7.38681330909133       -2.68890782658664
H           -9.22019222936873       -8.40909567481479       -2.37854017866171
C           -8.69367732960360       -9.89969517534163       -4.42777533601179
N           -9.97748960628268       -9.94598788031611       -4.81914765873593
C          -10.77537845166996      -10.95571507884148       -4.43734474359243
C          -10.24956387551545      -11.97282432040705       -3.64266650769909
H          -10.90539249902461      -12.77319083712845       -3.32408294094031
C           -8.92161945579439      -11.97222573352560       -3.26090497996690
H           -8.51094085427727      -12.77333369082623       -2.65752558258523
C           -8.12815942184468      -10.90833994107678       -3.66278748714439
H           -7.08525393351812      -10.85019632328709       -3.37823381630903
C          -10.31967262882242      -15.49695472725800       -8.98669537601940
H           -9.41435771941154      -14.90637665163911       -8.90799729102123
C          -11.16166645973154      -15.63615493075418       -7.87960152055006
C          -12.32812942609371      -16.39806485411730       -8.00540611436015
H          -12.98863017731504      -16.50962494591172       -7.15157666270039
C          -12.64055504730152      -17.01290138860813       -9.20652437377104
H          -13.54496816954480      -17.60412992825285       -9.28890626085612
C          -11.79633784514649      -16.87028190837320      -10.30007862498522
H          -12.04074801784363      -17.35097777671430      -11.23979558834947
C          -10.63950355686310      -16.11161602606822      -10.18774230479705
H           -9.97806537164525      -15.99845389732515      -11.03870761926504
C           -9.87811507736452      -16.09309416589587       -5.32326334476771
C           -9.94335655539836      -16.04949261585882       -3.92674901160742
H          -10.55373748210109      -15.29289218967968       -3.44291391779238
C           -9.24035237115157      -16.96653406557272       -3.16261937043848
H           -9.29904826353097      -16.92330366016967       -2.08139598702949
C           -8.47169929874836      -17.94295986970802       -3.78272259448825
H           -7.92823681035199      -18.66467619340872       -3.18468320620414
C           -8.40672456338060      -17.99998372109217       -5.16863497678106
H           -7.81292675256586      -18.76514614510716       -5.65454814363277
C           -9.10464234855232      -17.08333367045324       -5.93882926683161
H           -9.05716532260015      -17.13726154020488       -7.02060483665960
C           -9.35365083791021      -11.45488678074053       -7.65391067263630
C           -7.97982112894436      -11.54241526640893       -7.43615633809863
H           -7.34927131442460      -10.72782391292961       -7.76943272181779
C           -7.42037217392142      -12.63989526666340       -6.81040448408568
H           -6.35393813257594      -12.69790464569999       -6.62645634717615
C           -8.26295623969868      -13.67431132145454       -6.43244904487228
H           -7.87503503100289      -14.56363310539726       -5.95223585852115
C           -9.62052890688458      -13.56488769473676       -6.69251334707925
N          -10.14318401152997      -12.46903469082728       -7.26640421435721
C          -17.00764126003924      -16.73142351733483       -4.71148324375376
H          -17.05688201762063      -17.53857898675690       -5.43288722090645
C          -17.87663384011716      -16.70769880854025       -3.62837095745898
H          -18.60669421680128      -17.49836206159333       -3.50287570403592
C          -17.80407022647893      -15.67611448268606       -2.70168328245947
H          -18.47672575289605      -15.65928881409297       -1.85230670624533
C          -16.86788716675193      -14.66564540931263       -2.85339166286203
H          -16.80979732139967      -13.86682633324752       -2.12271887721845
C          -15.99059853270872      -14.67877853603361       -3.94333581886943
C          -16.06680954216172      -15.72656383769768       -4.86686586366258
H          -15.37899065058855      -15.75062690243954       -5.70675549473870
C          -14.38934010506279      -12.71469333555981       -2.54608629740174
C          -15.04018908252871      -11.59025729801611       -2.03076025298738
H          -15.79233430168209      -11.08114960369129       -2.62197028218009
C          -14.72670455069440      -11.12291432193950       -0.76342146946293
H          -15.23950169901455      -10.25152920457072       -0.37332763515450
C          -13.76656357718358      -11.76815546125801        0.00343549125293
H          -13.52752612021583      -11.40152190353763        0.99454521741350
C          -13.11245269070395      -12.88487722985530       -0.50068444171613
H          -12.36209691083050      -13.39238658944566        0.09403810674781
C          -13.41804909540615      -13.35340655120634       -1.76767015802154
H          -12.90585226983285      -14.22547801508369       -2.16120079492973
C          -15.60149923460739      -12.02796639060823       -5.02506070512566
N          -14.81591578103727      -11.02240185949269       -5.44395713780872
C          -15.34373716920947       -9.94257170570426       -6.04184443509457
C          -16.72163277050125       -9.88403150542383       -6.24302267076521
H          -17.14026983790092       -9.00120947284543       -6.70935345847368
C          -17.54846959908366      -10.92245387488579       -5.85941987079967
H          -18.61750664180329      -10.88162502087680       -6.03254698319403
C          -16.97210900305122      -12.01783982095639       -5.23427478074362
H          -17.57570859118972      -12.85187307133072       -4.89948867665592
