36
 energy: -56.829549160885 gnorm: 0.000053296891 xtb: 6.5.1 (579679a)
Au           7.90731542028547        3.58548146266635        6.12553697918703
C            6.42037129798593        6.24107990182497        3.56721880263547
C            5.27599699116691        5.45332827767184        3.63761078886683
H            5.22619938696402        4.63386844456049        4.34672178445767
C            4.19584700260723        5.70580190769864        2.80415784532356
H            3.30889790726562        5.08548260317003        2.86776450302489
C            4.25423128620600        6.74860001671318        1.89145021785878
H            3.41166441390581        6.94658271684928        1.23835769402458
C            5.39379364554985        7.53732706538490        1.81336076538009
H            5.44444915625826        8.35224944585704        1.09974527297177
C            6.47163996325651        7.28377916324065        2.64750099376701
H            7.35912362586888        7.90321144029223        2.57658394926848
C            8.20498892412707        7.65101498931634        5.92077984512226
C            7.12069664977247        8.51376227736594        6.03932586712836
H            6.17970147050955        8.27380358188527        5.55754230892326
C            7.23362969519508        9.68729266707662        6.77055883708878
H            6.38223440604029       10.35371926951366        6.85337333228604
C            8.43129002142899       10.00545340856971        7.39398149076571
H            8.51950498744771       10.92263085819514        7.96550324448136
C            9.51572806219114        9.14619150660980        7.28719667554627
H           10.45357165521859        9.38854231467903        7.77444121301353
C            9.40101320819470        7.97312564317555        6.55674397490973
H           10.25240733804093        7.30524036960616        6.48073905926844
C            9.67257646713930        6.03216622243286        3.49023167710031
C           10.22651117757680        7.26886970185909        3.17761912479444
H            9.85819245840250        8.16819551384004        3.65791342893414
C           11.25840818301644        7.36231053581274        2.25545548687602
H           11.68302253731195        8.33187314412602        2.01969647652119
C           11.74532892078328        6.21914891254998        1.63810453317839
H           12.55201983642758        6.29296537455580        0.91739793525182
C           11.20028009991421        4.98106578974608        1.94675408788873
H           11.57876429906963        4.08409329675440        1.46952945965315
C           10.16952401762304        4.88953691139369        2.87008721606338
H            9.74958027197292        3.91805255361208        3.10956724462328
Cl           7.76667233604915        1.62530397844634        7.20697371446603
Sb           8.05673287924937        5.81383673294982        4.85775116934222
